Acitretin
     RDKit          3D

 50 50  0  0  0  0  0  0  0  0999 V2000
   -6.5148    0.8369   -0.2141 O   0  0  0  0  0  0  0  0  0  0  0  0
    8.6752    2.3503   -0.4089 O   0  0  0  0  0  0  0  0  0  0  0  0
    8.6914    0.0944   -0.0649 O   0  0  0  0  0  0  0  0  0  0  0  0
   -2.8586    1.2460    0.3856 C   0  0  0  0  0  0  0  0  0  0  0  0
   -2.3494    0.0860   -0.2551 C   0  0  0  0  0  0  0  0  0  0  0  0
   -4.2512    1.5222    0.3337 C   0  0  0  0  0  0  0  0  0  0  0  0
   -3.2366   -0.8037   -0.9071 C   0  0  0  0  0  0  0  0  0  0  0  0
   -5.1308    0.5890   -0.2517 C   0  0  0  0  0  0  0  0  0  0  0  0
   -4.6137   -0.5633   -0.8616 C   0  0  0  0  0  0  0  0  0  0  0  0
   -1.9164    2.2069    1.0869 C   0  0  0  0  0  0  0  0  0  0  0  0
   -0.8881   -0.1603   -0.2782 C   0  0  0  0  0  0  0  0  0  0  0  0
   -4.8149    2.7845    0.9486 C   0  0  0  0  0  0  0  0  0  0  0  0
   -2.7466   -2.0289   -1.6403 C   0  0  0  0  0  0  0  0  0  0  0  0
   -0.3509   -1.2474    0.2917 C   0  0  0  0  0  0  0  0  0  0  0  0
    1.1061   -1.5309    0.3094 C   0  0  0  0  0  0  0  0  0  0  0  0
   -7.5116   -0.0185   -0.7645 C   0  0  0  0  0  0  0  0  0  0  0  0
    1.5293   -2.9768    0.3402 C   0  0  0  0  0  0  0  0  0  0  0  0
    2.0117   -0.5310    0.3675 C   0  0  0  0  0  0  0  0  0  0  0  0
    3.4749   -0.7473    0.4088 C   0  0  0  0  0  0  0  0  0  0  0  0
    4.3173    0.2912    0.4707 C   0  0  0  0  0  0  0  0  0  0  0  0
    5.7945    0.1370    0.4983 C   0  0  0  0  0  0  0  0  0  0  0  0
    6.4151   -1.1091    1.0863 C   0  0  0  0  0  0  0  0  0  0  0  0
    6.5410    1.1462    0.0015 C   0  0  0  0  0  0  0  0  0  0  0  0
    8.0161    1.1543   -0.1396 C   0  0  0  0  0  0  0  0  0  0  0  0
   -5.2823   -1.2749   -1.3272 H   0  0  0  0  0  0  0  0  0  0  0  0
   -1.0065    1.6980    1.4658 H   0  0  0  0  0  0  0  0  0  0  0  0
   -2.3923    2.6602    1.9804 H   0  0  0  0  0  0  0  0  0  0  0  0
   -1.6149    3.0103    0.3830 H   0  0  0  0  0  0  0  0  0  0  0  0
   -0.2601    0.5965   -0.7295 H   0  0  0  0  0  0  0  0  0  0  0  0
   -4.1721    3.6570    0.7079 H   0  0  0  0  0  0  0  0  0  0  0  0
   -5.8246    3.0275    0.5579 H   0  0  0  0  0  0  0  0  0  0  0  0
   -4.8811    2.6644    2.0501 H   0  0  0  0  0  0  0  0  0  0  0  0
   -3.4876   -2.3676   -2.3957 H   0  0  0  0  0  0  0  0  0  0  0  0
   -1.8036   -1.8140   -2.1853 H   0  0  0  0  0  0  0  0  0  0  0  0
   -2.5796   -2.8554   -0.9193 H   0  0  0  0  0  0  0  0  0  0  0  0
   -1.0119   -1.9867    0.7282 H   0  0  0  0  0  0  0  0  0  0  0  0
   -7.3631   -0.1231   -1.8600 H   0  0  0  0  0  0  0  0  0  0  0  0
   -8.5110    0.4275   -0.5838 H   0  0  0  0  0  0  0  0  0  0  0  0
   -7.4738   -1.0143   -0.2744 H   0  0  0  0  0  0  0  0  0  0  0  0
    2.1888   -3.1985   -0.5253 H   0  0  0  0  0  0  0  0  0  0  0  0
    2.0669   -3.1951    1.2872 H   0  0  0  0  0  0  0  0  0  0  0  0
    0.6526   -3.6559    0.2761 H   0  0  0  0  0  0  0  0  0  0  0  0
    1.6657    0.4941    0.4179 H   0  0  0  0  0  0  0  0  0  0  0  0
    3.8694   -1.7526    0.3610 H   0  0  0  0  0  0  0  0  0  0  0  0
    3.9094    1.2964    0.4485 H   0  0  0  0  0  0  0  0  0  0  0  0
    7.2687   -0.8469    1.7457 H   0  0  0  0  0  0  0  0  0  0  0  0
    5.6951   -1.6552    1.7299 H   0  0  0  0  0  0  0  0  0  0  0  0
    6.7546   -1.7830    0.2720 H   0  0  0  0  0  0  0  0  0  0  0  0
    6.0339    2.0388   -0.3477 H   0  0  0  0  0  0  0  0  0  0  0  0
    8.1701    3.2248   -0.4886 H   0  0  0  0  0  0  0  0  0  0  0  0
  1  8  1  0
  1 16  1  0
  2 24  1  0
  2 50  1  0
  3 24  2  0
  4  5  2  0
  4  6  1  0
  4 10  1  0
  5  7  1  0
  5 11  1  0
  6  8  2  0
  6 12  1  0
  7  9  2  0
  7 13  1  0
  8  9  1  0
  9 25  1  0
 10 26  1  0
 10 27  1  0
 10 28  1  0
 11 14  2  0
 11 29  1  0
 12 30  1  0
 12 31  1  0
 12 32  1  0
 13 33  1  0
 13 34  1  0
 13 35  1  0
 14 15  1  0
 14 36  1  0
 15 17  1  0
 15 18  2  0
 16 37  1  0
 16 38  1  0
 16 39  1  0
 17 40  1  0
 17 41  1  0
 17 42  1  0
 18 19  1  0
 18 43  1  0
 19 20  2  0
 19 44  1  0
 20 21  1  0
 20 45  1  0
 21 22  1  0
 21 23  2  0
 22 46  1  0
 22 47  1  0
 22 48  1  0
 23 24  1  0
 23 49  1  0
M  END
>  <Name>  (1) 
Acitretin

>  <activity>  (1) 
Positive

$$$$
Benoxaprofen
     RDKit          3D

 33 35  0  0  0  0  0  0  0  0999 V2000
    7.6791    1.1052   -0.4497 Cl  0  0  0  0  0  0  0  0  0  0  0  0
    1.2970   -0.6249    1.3615 O   0  0  0  0  0  0  0  0  0  0  0  0
   -4.2668    1.9981   -0.8015 O   0  0  0  0  0  0  0  0  0  0  0  0
   -5.4216    1.2183    1.0082 O   0  0  0  0  0  0  0  0  0  0  0  0
    0.8277    0.3874   -0.5828 N   0  0  0  0  0  0  0  0  0  0  0  0
   -4.0923   -0.4356   -0.0977 C   0  0  0  0  0  0  0  0  0  0  0  0
   -2.6386   -0.5169    0.3304 C   0  0  0  0  0  0  0  0  0  0  0  0
   -0.2941   -0.0632    0.0033 C   0  0  0  0  0  0  0  0  0  0  0  0
   -1.6017    0.0405   -0.4617 C   0  0  0  0  0  0  0  0  0  0  0  0
    0.0057   -0.6740    1.1793 C   0  0  0  0  0  0  0  0  0  0  0  0
   -2.3059   -1.1516    1.5607 C   0  0  0  0  0  0  0  0  0  0  0  0
   -0.9698   -1.2343    1.9938 C   0  0  0  0  0  0  0  0  0  0  0  0
   -4.3212   -0.9832   -1.5122 C   0  0  0  0  0  0  0  0  0  0  0  0
    1.7861    0.0100    0.3070 C   0  0  0  0  0  0  0  0  0  0  0  0
    3.2258    0.2800    0.1177 C   0  0  0  0  0  0  0  0  0  0  0  0
   -4.6283    0.9663    0.0628 C   0  0  0  0  0  0  0  0  0  0  0  0
    3.6840    0.9597   -1.0248 C   0  0  0  0  0  0  0  0  0  0  0  0
    4.1565   -0.1420    1.0826 C   0  0  0  0  0  0  0  0  0  0  0  0
    5.0488    1.2116   -1.1967 C   0  0  0  0  0  0  0  0  0  0  0  0
    5.5204    0.1116    0.9072 C   0  0  0  0  0  0  0  0  0  0  0  0
    5.9677    0.7881   -0.2318 C   0  0  0  0  0  0  0  0  0  0  0  0
   -4.6906   -1.0899    0.5765 H   0  0  0  0  0  0  0  0  0  0  0  0
   -1.7975    0.5268   -1.4061 H   0  0  0  0  0  0  0  0  0  0  0  0
   -3.0810   -1.5782    2.1848 H   0  0  0  0  0  0  0  0  0  0  0  0
   -0.7112   -1.7155    2.9280 H   0  0  0  0  0  0  0  0  0  0  0  0
   -5.4063   -0.9725   -1.7505 H   0  0  0  0  0  0  0  0  0  0  0  0
   -3.9634   -2.0333   -1.5718 H   0  0  0  0  0  0  0  0  0  0  0  0
   -3.7883   -0.3862   -2.2799 H   0  0  0  0  0  0  0  0  0  0  0  0
    2.9896    1.2963   -1.7844 H   0  0  0  0  0  0  0  0  0  0  0  0
    3.8304   -0.6675    1.9716 H   0  0  0  0  0  0  0  0  0  0  0  0
    5.3904    1.7357   -2.0802 H   0  0  0  0  0  0  0  0  0  0  0  0
    6.2282   -0.2182    1.6571 H   0  0  0  0  0  0  0  0  0  0  0  0
   -3.6586    1.8512   -1.5953 H   0  0  0  0  0  0  0  0  0  0  0  0
  1 21  1  0
  2 10  1  0
  2 14  1  0
  3 16  1  0
  3 33  1  0
  4 16  2  0
  5  8  1  0
  5 14  2  0
  6  7  1  0
  6 13  1  0
  6 16  1  0
  6 22  1  0
  7  9  2  0
  7 11  1  0
  8  9  1  0
  8 10  2  0
  9 23  1  0
 10 12  1  0
 11 12  2  0
 11 24  1  0
 12 25  1  0
 13 26  1  0
 13 27  1  0
 13 28  1  0
 14 15  1  0
 15 17  2  0
 15 18  1  0
 17 19  1  0
 17 29  1  0
 18 20  2  0
 18 30  1  0
 19 21  2  0
 19 31  1  0
 20 21  1  0
 20 32  1  0
M  END
>  <Name>  (2) 
Benoxaprofen

>  <activity>  (2) 
Positive

$$$$
Bosentan
     RDKit          3D

 68 71  0  0  0  0  0  0  0  0999 V2000
    0.8521   -0.6911   -0.9971 S   0  0  0  0  0  0  0  0  0  0  0  0
    0.5139   -1.5396    0.1972 O   0  0  0  0  0  0  0  0  0  0  0  0
    0.5463   -1.4623   -2.2501 O   0  0  0  0  0  0  0  0  0  0  0  0
   -2.1629   -1.1619   -1.2522 O   0  0  0  0  0  0  0  0  0  0  0  0
   -4.5773   -0.7870    0.1888 O   0  0  0  0  0  0  0  0  0  0  0  0
   -2.9496   -3.0136   -3.3669 O   0  0  0  0  0  0  0  0  0  0  0  0
   -4.5720   -0.8248    3.0958 O   0  0  0  0  0  0  0  0  0  0  0  0
   -0.0695    0.7782   -0.9645 N   0  0  0  0  0  0  0  0  0  0  0  0
   -1.5140    1.9746    0.5378 N   0  0  0  0  0  0  0  0  0  0  0  0
   -3.6560    1.2147    1.1284 N   0  0  0  0  0  0  0  0  0  0  0  0
   -1.8572    4.2396    2.2125 N   0  0  0  0  0  0  0  0  0  0  0  0
   -4.0005    3.4698    2.8080 N   0  0  0  0  0  0  0  0  0  0  0  0
    6.8141    0.7442   -0.7826 C   0  0  0  0  0  0  0  0  0  0  0  0
    5.3169    0.3825   -0.8698 C   0  0  0  0  0  0  0  0  0  0  0  0
    6.9792    2.0733   -0.0137 C   0  0  0  0  0  0  0  0  0  0  0  0
    7.4785    0.9184   -2.1698 C   0  0  0  0  0  0  0  0  0  0  0  0
    7.5715   -0.3768   -0.0379 C   0  0  0  0  0  0  0  0  0  0  0  0
    4.6359    0.2304   -2.1015 C   0  0  0  0  0  0  0  0  0  0  0  0
    4.5747    0.1921    0.3179 C   0  0  0  0  0  0  0  0  0  0  0  0
    2.5661   -0.2929   -0.9488 C   0  0  0  0  0  0  0  0  0  0  0  0
    3.2782   -0.1002   -2.1357 C   0  0  0  0  0  0  0  0  0  0  0  0
    3.2180   -0.1379    0.2772 C   0  0  0  0  0  0  0  0  0  0  0  0
   -1.3120    0.8924   -0.2593 C   0  0  0  0  0  0  0  0  0  0  0  0
   -2.3263   -0.0736   -0.3835 C   0  0  0  0  0  0  0  0  0  0  0  0
   -3.5211    0.1218    0.3308 C   0  0  0  0  0  0  0  0  0  0  0  0
   -2.6665    2.1377    1.2381 C   0  0  0  0  0  0  0  0  0  0  0  0
   -2.5285   -2.4856   -0.9656 C   0  0  0  0  0  0  0  0  0  0  0  0
   -2.8455    3.3099    2.1057 C   0  0  0  0  0  0  0  0  0  0  0  0
   -5.7577   -0.7692    0.9896 C   0  0  0  0  0  0  0  0  0  0  0  0
   -2.8812   -3.3784   -2.0103 C   0  0  0  0  0  0  0  0  0  0  0  0
   -2.5021   -2.9563    0.3623 C   0  0  0  0  0  0  0  0  0  0  0  0
   -3.1953   -4.7077   -1.6953 C   0  0  0  0  0  0  0  0  0  0  0  0
   -5.5233   -1.4957    2.3154 C   0  0  0  0  0  0  0  0  0  0  0  0
   -2.8297   -4.2803    0.6541 C   0  0  0  0  0  0  0  0  0  0  0  0
   -3.1747   -5.1556   -0.3736 C   0  0  0  0  0  0  0  0  0  0  0  0
   -2.0042    5.3290    3.0108 C   0  0  0  0  0  0  0  0  0  0  0  0
   -4.1850    4.5455    3.6168 C   0  0  0  0  0  0  0  0  0  0  0  0
   -3.1817    5.5059    3.7358 C   0  0  0  0  0  0  0  0  0  0  0  0
   -2.8019   -1.6989   -3.8921 C   0  0  0  0  0  0  0  0  0  0  0  0
    8.0479    2.3773    0.0236 H   0  0  0  0  0  0  0  0  0  0  0  0
    6.6221    1.9863    1.0337 H   0  0  0  0  0  0  0  0  0  0  0  0
    6.4030    2.8823   -0.5126 H   0  0  0  0  0  0  0  0  0  0  0  0
    7.4201   -0.0228   -2.7583 H   0  0  0  0  0  0  0  0  0  0  0  0
    6.9942    1.7403   -2.7404 H   0  0  0  0  0  0  0  0  0  0  0  0
    8.5543    1.1773   -2.0618 H   0  0  0  0  0  0  0  0  0  0  0  0
    8.6608   -0.1582    0.0011 H   0  0  0  0  0  0  0  0  0  0  0  0
    7.2173   -0.4838    1.0087 H   0  0  0  0  0  0  0  0  0  0  0  0
    7.4284   -1.3497   -0.5562 H   0  0  0  0  0  0  0  0  0  0  0  0
    5.1327    0.3641   -3.0506 H   0  0  0  0  0  0  0  0  0  0  0  0
    5.0416    0.2989    1.2875 H   0  0  0  0  0  0  0  0  0  0  0  0
    2.7822   -0.2029   -3.0926 H   0  0  0  0  0  0  0  0  0  0  0  0
    2.6764   -0.2702    1.2052 H   0  0  0  0  0  0  0  0  0  0  0  0
    0.4443    1.6582   -1.1928 H   0  0  0  0  0  0  0  0  0  0  0  0
   -6.1064    0.2721    1.1634 H   0  0  0  0  0  0  0  0  0  0  0  0
   -6.5591   -1.3032    0.4369 H   0  0  0  0  0  0  0  0  0  0  0  0
   -2.2127   -2.3004    1.1730 H   0  0  0  0  0  0  0  0  0  0  0  0
   -3.4661   -5.3979   -2.4845 H   0  0  0  0  0  0  0  0  0  0  0  0
   -6.4845   -1.5827    2.8708 H   0  0  0  0  0  0  0  0  0  0  0  0
   -5.1568   -2.5237    2.1090 H   0  0  0  0  0  0  0  0  0  0  0  0
   -2.8080   -4.6299    1.6782 H   0  0  0  0  0  0  0  0  0  0  0  0
   -3.4245   -6.1841   -0.1469 H   0  0  0  0  0  0  0  0  0  0  0  0
   -1.2070    6.0568    3.0819 H   0  0  0  0  0  0  0  0  0  0  0  0
   -5.1103    4.6543    4.1665 H   0  0  0  0  0  0  0  0  0  0  0  0
   -3.3140    6.3684    4.3761 H   0  0  0  0  0  0  0  0  0  0  0  0
   -2.9944   -1.7255   -4.9840 H   0  0  0  0  0  0  0  0  0  0  0  0
   -3.5393   -1.0125   -3.4248 H   0  0  0  0  0  0  0  0  0  0  0  0
   -1.7662   -1.3344   -3.7339 H   0  0  0  0  0  0  0  0  0  0  0  0
   -5.0257   -0.0252    3.4710 H   0  0  0  0  0  0  0  0  0  0  0  0
  1  2  2  0
  1  3  2  0
  1  8  1  0
  1 20  1  0
  4 24  1  0
  4 27  1  0
  5 25  1  0
  5 29  1  0
  6 30  1  0
  6 39  1  0
  7 33  1  0
  7 68  1  0
  8 23  1  0
  8 53  1  0
  9 23  2  0
  9 26  1  0
 10 25  1  0
 10 26  2  0
 11 28  2  0
 11 36  1  0
 12 28  1  0
 12 37  2  0
 13 14  1  0
 13 15  1  0
 13 16  1  0
 13 17  1  0
 14 18  2  0
 14 19  1  0
 15 40  1  0
 15 41  1  0
 15 42  1  0
 16 43  1  0
 16 44  1  0
 16 45  1  0
 17 46  1  0
 17 47  1  0
 17 48  1  0
 18 21  1  0
 18 49  1  0
 19 22  2  0
 19 50  1  0
 20 21  2  0
 20 22  1  0
 21 51  1  0
 22 52  1  0
 23 24  1  0
 24 25  2  0
 26 28  1  0
 27 30  2  0
 27 31  1  0
 29 33  1  0
 29 54  1  0
 29 55  1  0
 30 32  1  0
 31 34  2  0
 31 56  1  0
 32 35  2  0
 32 57  1  0
 33 58  1  0
 33 59  1  0
 34 35  1  0
 34 60  1  0
 35 61  1  0
 36 38  2  0
 36 62  1  0
 37 38  1  0
 37 63  1  0
 38 64  1  0
 39 65  1  0
 39 66  1  0
 39 67  1  0
M  END
>  <Name>  (3) 
Bosentan

>  <activity>  (3) 
Positive

$$$$
Bromfenac
     RDKit          3D

 32 33  0  0  0  0  0  0  0  0999 V2000
   -5.9429    3.1347    0.1002 Br  0  0  0  0  0  0  0  0  0  0  0  0
   -1.6580   -2.2881    0.0467 O   0  0  0  0  0  0  0  0  0  0  0  0
    5.1085    0.8053   -1.1598 O   0  0  0  0  0  0  0  0  0  0  0  0
    3.2064    0.2581   -2.3226 O   0  0  0  0  0  0  0  0  0  0  0  0
    0.9056   -1.6353   -1.3855 N   0  0  0  0  0  0  0  0  0  0  0  0
    2.4159   -0.7803    0.4019 C   0  0  0  0  0  0  0  0  0  0  0  0
   -0.0127   -0.7403    0.7313 C   0  0  0  0  0  0  0  0  0  0  0  0
    1.1069   -1.0675   -0.0775 C   0  0  0  0  0  0  0  0  0  0  0  0
    3.6648   -1.0867   -0.3944 C   0  0  0  0  0  0  0  0  0  0  0  0
    2.5700   -0.1358    1.6414 C   0  0  0  0  0  0  0  0  0  0  0  0
   -1.3947   -1.0872    0.3290 C   0  0  0  0  0  0  0  0  0  0  0  0
    0.1811   -0.1113    1.9701 C   0  0  0  0  0  0  0  0  0  0  0  0
   -2.4765   -0.0701    0.2820 C   0  0  0  0  0  0  0  0  0  0  0  0
    1.4623    0.1951    2.4161 C   0  0  0  0  0  0  0  0  0  0  0  0
   -3.8252   -0.4722    0.2927 C   0  0  0  0  0  0  0  0  0  0  0  0
   -2.1786    1.3043    0.2016 C   0  0  0  0  0  0  0  0  0  0  0  0
    3.9717    0.0257   -1.3489 C   0  0  0  0  0  0  0  0  0  0  0  0
   -4.8496    0.4780    0.2411 C   0  0  0  0  0  0  0  0  0  0  0  0
   -3.2064    2.2507    0.1499 C   0  0  0  0  0  0  0  0  0  0  0  0
   -4.5415    1.8392    0.1716 C   0  0  0  0  0  0  0  0  0  0  0  0
    4.5277   -1.2123    0.2958 H   0  0  0  0  0  0  0  0  0  0  0  0
    3.5843   -2.0515   -0.9340 H   0  0  0  0  0  0  0  0  0  0  0  0
    3.5569    0.1147    2.0113 H   0  0  0  0  0  0  0  0  0  0  0  0
   -0.6664    0.1355    2.5985 H   0  0  0  0  0  0  0  0  0  0  0  0
    1.5984    0.6854    3.3715 H   0  0  0  0  0  0  0  0  0  0  0  0
    1.6918   -1.9462   -1.9934 H   0  0  0  0  0  0  0  0  0  0  0  0
   -0.0422   -1.6915   -1.8172 H   0  0  0  0  0  0  0  0  0  0  0  0
   -4.0888   -1.5210    0.3498 H   0  0  0  0  0  0  0  0  0  0  0  0
   -1.1535    1.6498    0.1651 H   0  0  0  0  0  0  0  0  0  0  0  0
   -5.8826    0.1548    0.2554 H   0  0  0  0  0  0  0  0  0  0  0  0
   -2.9634    3.3038    0.0887 H   0  0  0  0  0  0  0  0  0  0  0  0
    5.3310    1.5622   -1.7953 H   0  0  0  0  0  0  0  0  0  0  0  0
  1 20  1  0
  2 11  2  0
  3 17  1  0
  3 32  1  0
  4 17  2  0
  5  8  1  0
  5 26  1  0
  5 27  1  0
  6  8  2  0
  6  9  1  0
  6 10  1  0
  7  8  1  0
  7 11  1  0
  7 12  2  0
  9 17  1  0
  9 21  1  0
  9 22  1  0
 10 14  2  0
 10 23  1  0
 11 13  1  0
 12 14  1  0
 12 24  1  0
 13 15  2  0
 13 16  1  0
 14 25  1  0
 15 18  1  0
 15 28  1  0
 16 19  2  0
 16 29  1  0
 18 20  2  0
 18 30  1  0
 19 20  1  0
 19 31  1  0
M  END
>  <Name>  (4) 
Bromfenac

>  <activity>  (4) 
Positive

$$$$
Dacarbazine
     RDKit          3D

 23 23  0  0  0  0  0  0  0  0999 V2000
    2.9602    1.7745   -0.7576 O   0  0  0  0  0  0  0  0  0  0  0  0
   -2.0519   -0.1416   -0.3301 N   0  0  0  0  0  0  0  0  0  0  0  0
   -1.1644    0.7966   -0.8947 N   0  0  0  0  0  0  0  0  0  0  0  0
    0.2095    0.8029   -0.5884 N   0  0  0  0  0  0  0  0  0  0  0  0
    0.1621   -1.0783    0.9358 N   0  0  0  0  0  0  0  0  0  0  0  0
    2.4142   -1.0075    1.3886 N   0  0  0  0  0  0  0  0  0  0  0  0
    4.6082    0.7095    0.4853 N   0  0  0  0  0  0  0  0  0  0  0  0
    0.7949   -0.0284    0.2226 C   0  0  0  0  0  0  0  0  0  0  0  0
    2.2031   -0.0445    0.5550 C   0  0  0  0  0  0  0  0  0  0  0  0
   -2.6621   -0.9146   -1.4174 C   0  0  0  0  0  0  0  0  0  0  0  0
   -3.0789    0.5870    0.4225 C   0  0  0  0  0  0  0  0  0  0  0  0
    3.2540    0.8590    0.0561 C   0  0  0  0  0  0  0  0  0  0  0  0
    1.1352   -1.6213    1.5994 C   0  0  0  0  0  0  0  0  0  0  0  0
   -1.5213    1.5173   -1.5637 H   0  0  0  0  0  0  0  0  0  0  0  0
   -3.3521   -1.6792   -1.0004 H   0  0  0  0  0  0  0  0  0  0  0  0
   -1.8708   -1.4489   -1.9858 H   0  0  0  0  0  0  0  0  0  0  0  0
   -3.2246   -0.2562   -2.1168 H   0  0  0  0  0  0  0  0  0  0  0  0
   -3.7822   -0.1295    0.8987 H   0  0  0  0  0  0  0  0  0  0  0  0
   -2.6000    1.1778    1.2326 H   0  0  0  0  0  0  0  0  0  0  0  0
   -3.6506    1.2782   -0.2365 H   0  0  0  0  0  0  0  0  0  0  0  0
    0.9892   -2.4677    2.2569 H   0  0  0  0  0  0  0  0  0  0  0  0
    5.3465    1.3547    0.1263 H   0  0  0  0  0  0  0  0  0  0  0  0
    4.8818   -0.0399    1.1589 H   0  0  0  0  0  0  0  0  0  0  0  0
  1 12  2  0
  2  3  1  0
  2 10  1  0
  2 11  1  0
  3  4  1  0
  3 14  1  0
  4  8  2  0
  5  8  1  0
  5 13  2  0
  6  9  2  0
  6 13  1  0
  7 12  1  0
  7 22  1  0
  7 23  1  0
  8  9  1  0
  9 12  1  0
 10 15  1  0
 10 16  1  0
 10 17  1  0
 11 18  1  0
 11 19  1  0
 11 20  1  0
 13 21  1  0
M  END
>  <Name>  (5) 
Dacarbazine

>  <activity>  (5) 
Positive

$$$$
Dantrolene
     RDKit          3D

 33 35  0  0  0  0  0  0  0  0999 V2000
    0.4097   -0.1316   -0.1216 O   0  0  0  0  0  0  0  0  0  0  0  0
   -7.9468   -0.0743   -0.3164 O   0  0  0  0  0  0  0  0  0  0  0  0
   -3.9885   -2.4310   -0.5097 O   0  0  0  0  0  0  0  0  0  0  0  0
    7.3398   -1.6014   -1.0835 O   0  0  0  0  0  0  0  0  0  0  0  0
    7.8214    0.1141    0.3068 O   0  0  0  0  0  0  0  0  0  0  0  0
   -4.4183   -0.1051   -0.2621 N   0  0  0  0  0  0  0  0  0  0  0  0
   -6.1987   -1.6355   -0.5544 N   0  0  0  0  0  0  0  0  0  0  0  0
   -3.1533    0.3651    0.1359 N   0  0  0  0  0  0  0  0  0  0  0  0
    6.9455   -0.5667   -0.2663 N   0  0  0  0  0  0  0  0  0  0  0  0
   -5.6362    0.6856   -0.1178 C   0  0  0  0  0  0  0  0  0  0  0  0
    1.3575    0.5651    0.4668 C   0  0  0  0  0  0  0  0  0  0  0  0
    2.8028    0.2892    0.2906 C   0  0  0  0  0  0  0  0  0  0  0  0
   -0.7551    0.3568    0.2337 C   0  0  0  0  0  0  0  0  0  0  0  0
   -6.7145   -0.3305   -0.3362 C   0  0  0  0  0  0  0  0  0  0  0  0
   -4.7975   -1.4672   -0.4695 C   0  0  0  0  0  0  0  0  0  0  0  0
    0.7844    1.5593    1.2464 C   0  0  0  0  0  0  0  0  0  0  0  0
   -0.5789    1.4228    1.0944 C   0  0  0  0  0  0  0  0  0  0  0  0
    3.2106   -0.7655   -0.5422 C   0  0  0  0  0  0  0  0  0  0  0  0
    3.7838    1.0601    0.9393 C   0  0  0  0  0  0  0  0  0  0  0  0
   -2.0363   -0.1800   -0.2360 C   0  0  0  0  0  0  0  0  0  0  0  0
    5.5485   -0.2759   -0.0768 C   0  0  0  0  0  0  0  0  0  0  0  0
    4.5679   -1.0453   -0.7242 C   0  0  0  0  0  0  0  0  0  0  0  0
    5.1413    0.7801    0.7572 C   0  0  0  0  0  0  0  0  0  0  0  0
   -5.6757    1.4799   -0.8926 H   0  0  0  0  0  0  0  0  0  0  0  0
   -5.7058    1.1125    0.9052 H   0  0  0  0  0  0  0  0  0  0  0  0
    1.2836    2.2995    1.8558 H   0  0  0  0  0  0  0  0  0  0  0  0
   -6.7325   -2.5249   -0.6731 H   0  0  0  0  0  0  0  0  0  0  0  0
   -1.3470    2.0288    1.5569 H   0  0  0  0  0  0  0  0  0  0  0  0
    2.4786   -1.3771   -1.0553 H   0  0  0  0  0  0  0  0  0  0  0  0
    3.5114    1.8804    1.5884 H   0  0  0  0  0  0  0  0  0  0  0  0
   -2.0242   -1.0134   -0.9246 H   0  0  0  0  0  0  0  0  0  0  0  0
    4.8490   -1.8650   -1.3726 H   0  0  0  0  0  0  0  0  0  0  0  0
    5.8732    1.3911    1.2698 H   0  0  0  0  0  0  0  0  0  0  0  0
  1 11  1  0
  1 13  1  0
  2 14  2  0
  3 15  2  0
  4  9  1  0
  5  9  2  0
  6  8  1  0
  6 10  1  0
  6 15  1  0
  7 14  1  0
  7 15  1  0
  7 27  1  0
  8 20  2  0
  9 21  1  0
 10 14  1  0
 10 24  1  0
 10 25  1  0
 11 12  1  0
 11 16  2  0
 12 18  2  0
 12 19  1  0
 13 17  2  0
 13 20  1  0
 16 17  1  0
 16 26  1  0
 17 28  1  0
 18 22  1  0
 18 29  1  0
 19 23  2  0
 19 30  1  0
 20 31  1  0
 21 22  2  0
 21 23  1  0
 22 32  1  0
 23 33  1  0
M  CHG  2   4  -1   9   1
M  END
>  <Name>  (6) 
Dantrolene

>  <activity>  (6) 
Positive

$$$$
Etretinate
     RDKit          3D

 56 56  0  0  0  0  0  0  0  0999 V2000
   -7.6541    0.7098    0.6675 O   0  0  0  0  0  0  0  0  0  0  0  0
    7.3234   -1.5412    1.1186 O   0  0  0  0  0  0  0  0  0  0  0  0
    7.4997   -0.1165   -0.6861 O   0  0  0  0  0  0  0  0  0  0  0  0
   -4.3613   -0.8133   -0.1881 C   0  0  0  0  0  0  0  0  0  0  0  0
   -3.4695    0.1620    0.3368 C   0  0  0  0  0  0  0  0  0  0  0  0
   -5.7617   -0.5806   -0.1356 C   0  0  0  0  0  0  0  0  0  0  0  0
   -3.9850    1.2885    1.0157 C   0  0  0  0  0  0  0  0  0  0  0  0
   -6.2622    0.5383    0.5606 C   0  0  0  0  0  0  0  0  0  0  0  0
   -5.3689    1.4538    1.1362 C   0  0  0  0  0  0  0  0  0  0  0  0
   -3.8278   -2.0910   -0.8067 C   0  0  0  0  0  0  0  0  0  0  0  0
   -1.9988    0.0186    0.1984 C   0  0  0  0  0  0  0  0  0  0  0  0
   -6.7346   -1.5531   -0.7654 C   0  0  0  0  0  0  0  0  0  0  0  0
   -3.0702    2.3248    1.6214 C   0  0  0  0  0  0  0  0  0  0  0  0
   -1.4151   -0.0754   -1.0046 C   0  0  0  0  0  0  0  0  0  0  0  0
    0.0550   -0.1550   -1.2026 C   0  0  0  0  0  0  0  0  0  0  0  0
   -8.2933    1.7900    1.3404 C   0  0  0  0  0  0  0  0  0  0  0  0
    0.5947    0.3254   -2.5269 C   0  0  0  0  0  0  0  0  0  0  0  0
    0.8591   -0.6807   -0.2509 C   0  0  0  0  0  0  0  0  0  0  0  0
    2.3314   -0.7601   -0.3327 C   0  0  0  0  0  0  0  0  0  0  0  0
    3.0944    0.3064   -0.6126 C   0  0  0  0  0  0  0  0  0  0  0  0
    4.5773    0.2600   -0.6886 C   0  0  0  0  0  0  0  0  0  0  0  0
    5.2409    1.2221   -1.6395 C   0  0  0  0  0  0  0  0  0  0  0  0
    5.2868   -0.5661    0.1150 C   0  0  0  0  0  0  0  0  0  0  0  0
    6.7593   -0.7080    0.1458 C   0  0  0  0  0  0  0  0  0  0  0  0
    8.7289   -1.7245    1.2794 C   0  0  0  0  0  0  0  0  0  0  0  0
    9.3557   -0.5122    1.9586 C   0  0  0  0  0  0  0  0  0  0  0  0
   -5.7478    2.3137    1.6716 H   0  0  0  0  0  0  0  0  0  0  0  0
   -2.8405   -2.3727   -0.3870 H   0  0  0  0  0  0  0  0  0  0  0  0
   -3.7373   -1.9653   -1.9058 H   0  0  0  0  0  0  0  0  0  0  0  0
   -4.4948   -2.9507   -0.5905 H   0  0  0  0  0  0  0  0  0  0  0  0
   -1.3953    0.1068    1.0923 H   0  0  0  0  0  0  0  0  0  0  0  0
   -6.8897   -2.4170   -0.0858 H   0  0  0  0  0  0  0  0  0  0  0  0
   -6.3518   -1.9141   -1.7429 H   0  0  0  0  0  0  0  0  0  0  0  0
   -7.7181   -1.0832   -0.9734 H   0  0  0  0  0  0  0  0  0  0  0  0
   -2.3485    2.6875    0.8593 H   0  0  0  0  0  0  0  0  0  0  0  0
   -3.6336    3.2052    1.9976 H   0  0  0  0  0  0  0  0  0  0  0  0
   -2.5138    1.8795    2.4726 H   0  0  0  0  0  0  0  0  0  0  0  0
   -2.0421   -0.0257   -1.8873 H   0  0  0  0  0  0  0  0  0  0  0  0
   -9.3926    1.6656    1.2616 H   0  0  0  0  0  0  0  0  0  0  0  0
   -8.0110    2.7548    0.8686 H   0  0  0  0  0  0  0  0  0  0  0  0
   -8.0127    1.7906    2.4149 H   0  0  0  0  0  0  0  0  0  0  0  0
   -0.1771    0.2404   -3.3209 H   0  0  0  0  0  0  0  0  0  0  0  0
    0.8908    1.3916   -2.4470 H   0  0  0  0  0  0  0  0  0  0  0  0
    1.4637   -0.2828   -2.8554 H   0  0  0  0  0  0  0  0  0  0  0  0
    0.4171   -1.1676    0.6085 H   0  0  0  0  0  0  0  0  0  0  0  0
    2.7845   -1.7091   -0.0801 H   0  0  0  0  0  0  0  0  0  0  0  0
    2.6137    1.2506   -0.8345 H   0  0  0  0  0  0  0  0  0  0  0  0
    4.4918    1.8476   -2.1703 H   0  0  0  0  0  0  0  0  0  0  0  0
    5.8097    0.6626   -2.4114 H   0  0  0  0  0  0  0  0  0  0  0  0
    5.9173    1.9050   -1.0833 H   0  0  0  0  0  0  0  0  0  0  0  0
    4.7595   -1.1719    0.8401 H   0  0  0  0  0  0  0  0  0  0  0  0
    8.8979   -2.6173    1.9176 H   0  0  0  0  0  0  0  0  0  0  0  0
    9.2114   -1.9086    0.2949 H   0  0  0  0  0  0  0  0  0  0  0  0
   10.4378   -0.6963    2.1261 H   0  0  0  0  0  0  0  0  0  0  0  0
    9.2423    0.3903    1.3226 H   0  0  0  0  0  0  0  0  0  0  0  0
    8.8653   -0.3315    2.9384 H   0  0  0  0  0  0  0  0  0  0  0  0
  1  8  1  0
  1 16  1  0
  2 24  1  0
  2 25  1  0
  3 24  2  0
  4  5  2  0
  4  6  1  0
  4 10  1  0
  5  7  1  0
  5 11  1  0
  6  8  2  0
  6 12  1  0
  7  9  2  0
  7 13  1  0
  8  9  1  0
  9 27  1  0
 10 28  1  0
 10 29  1  0
 10 30  1  0
 11 14  2  0
 11 31  1  0
 12 32  1  0
 12 33  1  0
 12 34  1  0
 13 35  1  0
 13 36  1  0
 13 37  1  0
 14 15  1  0
 14 38  1  0
 15 17  1  0
 15 18  2  0
 16 39  1  0
 16 40  1  0
 16 41  1  0
 17 42  1  0
 17 43  1  0
 17 44  1  0
 18 19  1  0
 18 45  1  0
 19 20  2  0
 19 46  1  0
 20 21  1  0
 20 47  1  0
 21 22  1  0
 21 23  2  0
 22 48  1  0
 22 49  1  0
 22 50  1  0
 23 24  1  0
 23 51  1  0
 25 26  1  0
 25 52  1  0
 25 53  1  0
 26 54  1  0
 26 55  1  0
 26 56  1  0
M  END
>  <Name>  (7) 
Etretinate

>  <activity>  (7) 
Positive

$$$$
Felbamate
     RDKit          3D

 31 31  0  0  0  0  0  0  0  0999 V2000
    1.7694    1.3536   -0.1337 O   0  0  0  0  0  0  0  0  0  0  0  0
    1.8920   -1.2669    0.8137 O   0  0  0  0  0  0  0  0  0  0  0  0
    3.6600    2.6298    0.0675 O   0  0  0  0  0  0  0  0  0  0  0  0
    2.2667   -2.5958   -1.0432 O   0  0  0  0  0  0  0  0  0  0  0  0
    1.6630    3.7576    0.4340 N   0  0  0  0  0  0  0  0  0  0  0  0
    4.1500   -1.8106    0.0687 N   0  0  0  0  0  0  0  0  0  0  0  0
    0.0055   -0.2931   -0.4175 C   0  0  0  0  0  0  0  0  0  0  0  0
   -1.4857   -0.4429   -0.6591 C   0  0  0  0  0  0  0  0  0  0  0  0
    0.3570    1.1701   -0.0945 C   0  0  0  0  0  0  0  0  0  0  0  0
    0.4698   -1.2577    0.6944 C   0  0  0  0  0  0  0  0  0  0  0  0
   -2.4194   -0.1460    0.3536 C   0  0  0  0  0  0  0  0  0  0  0  0
   -1.9565   -0.8847   -1.9095 C   0  0  0  0  0  0  0  0  0  0  0  0
   -3.7899   -0.2888    0.1168 C   0  0  0  0  0  0  0  0  0  0  0  0
   -3.3284   -1.0257   -2.1405 C   0  0  0  0  0  0  0  0  0  0  0  0
   -4.2440   -0.7281   -1.1287 C   0  0  0  0  0  0  0  0  0  0  0  0
    2.4036    2.5749    0.1193 C   0  0  0  0  0  0  0  0  0  0  0  0
    2.7382   -1.9161   -0.0917 C   0  0  0  0  0  0  0  0  0  0  0  0
    0.5479   -0.5626   -1.3507 H   0  0  0  0  0  0  0  0  0  0  0  0
   -0.0263    1.4446    0.9125 H   0  0  0  0  0  0  0  0  0  0  0  0
   -0.1130    1.8352   -0.8525 H   0  0  0  0  0  0  0  0  0  0  0  0
    0.0416   -0.9445    1.6700 H   0  0  0  0  0  0  0  0  0  0  0  0
    0.1066   -2.2889    0.4876 H   0  0  0  0  0  0  0  0  0  0  0  0
   -2.0892    0.1962    1.3257 H   0  0  0  0  0  0  0  0  0  0  0  0
   -1.2637   -1.1213   -2.7074 H   0  0  0  0  0  0  0  0  0  0  0  0
   -4.5004   -0.0584    0.9001 H   0  0  0  0  0  0  0  0  0  0  0  0
   -3.6817   -1.3662   -3.1052 H   0  0  0  0  0  0  0  0  0  0  0  0
   -5.3054   -0.8379   -1.3098 H   0  0  0  0  0  0  0  0  0  0  0  0
    0.6213    3.7583    0.4840 H   0  0  0  0  0  0  0  0  0  0  0  0
    2.1668    4.6533    0.6193 H   0  0  0  0  0  0  0  0  0  0  0  0
    4.7964   -2.2903   -0.5963 H   0  0  0  0  0  0  0  0  0  0  0  0
    4.5479   -1.2471    0.8522 H   0  0  0  0  0  0  0  0  0  0  0  0
  1  9  1  0
  1 16  1  0
  2 10  1  0
  2 17  1  0
  3 16  2  0
  4 17  2  0
  5 16  1  0
  5 28  1  0
  5 29  1  0
  6 17  1  0
  6 30  1  0
  6 31  1  0
  7  8  1  0
  7  9  1  0
  7 10  1  0
  7 18  1  0
  8 11  2  0
  8 12  1  0
  9 19  1  0
  9 20  1  0
 10 21  1  0
 10 22  1  0
 11 13  1  0
 11 23  1  0
 12 14  2  0
 12 24  1  0
 13 15  2  0
 13 25  1  0
 14 15  1  0
 14 26  1  0
 15 27  1  0
M  END
>  <Name>  (8) 
Felbamate

>  <activity>  (8) 
Positive

$$$$
Flutamide
     RDKit          3D

 30 30  0  0  0  0  0  0  0  0999 V2000
    3.7237   -2.2228   -1.2905 F   0  0  0  0  0  0  0  0  0  0  0  0
    4.7078   -0.2785   -1.8303 F   0  0  0  0  0  0  0  0  0  0  0  0
    5.0495   -1.2154    0.1969 F   0  0  0  0  0  0  0  0  0  0  0  0
   -1.8882   -0.1149    1.4398 O   0  0  0  0  0  0  0  0  0  0  0  0
    5.3971    1.5160    0.1197 O   0  0  0  0  0  0  0  0  0  0  0  0
    4.5805    1.7617    2.2114 O   0  0  0  0  0  0  0  0  0  0  0  0
   -0.7990   -0.2742   -0.6286 N   0  0  0  0  0  0  0  0  0  0  0  0
    4.4021    1.3348    1.0518 N   0  0  0  0  0  0  0  0  0  0  0  0
   -3.3405   -0.3947   -0.4453 C   0  0  0  0  0  0  0  0  0  0  0  0
    0.5090    0.1028   -0.1646 C   0  0  0  0  0  0  0  0  0  0  0  0
   -1.9812   -0.2397    0.1875 C   0  0  0  0  0  0  0  0  0  0  0  0
    2.9368   -0.2083   -0.2591 C   0  0  0  0  0  0  0  0  0  0  0  0
    1.6358   -0.5510   -0.6797 C   0  0  0  0  0  0  0  0  0  0  0  0
   -4.2024    0.8413   -0.1703 C   0  0  0  0  0  0  0  0  0  0  0  0
   -4.0276   -1.6652    0.0643 C   0  0  0  0  0  0  0  0  0  0  0  0
    3.1014    0.8735    0.6472 C   0  0  0  0  0  0  0  0  0  0  0  0
    0.6844    1.1499    0.7499 C   0  0  0  0  0  0  0  0  0  0  0  0
    1.9647    1.5256    1.1532 C   0  0  0  0  0  0  0  0  0  0  0  0
    4.1182   -0.9889   -0.8012 C   0  0  0  0  0  0  0  0  0  0  0  0
   -3.2245   -0.4884   -1.5474 H   0  0  0  0  0  0  0  0  0  0  0  0
   -0.8796   -0.6776   -1.5895 H   0  0  0  0  0  0  0  0  0  0  0  0
    1.4866   -1.3454   -1.4003 H   0  0  0  0  0  0  0  0  0  0  0  0
   -3.6965    1.7520   -0.5571 H   0  0  0  0  0  0  0  0  0  0  0  0
   -4.3808    0.9650    0.9197 H   0  0  0  0  0  0  0  0  0  0  0  0
   -5.1829    0.7447   -0.6837 H   0  0  0  0  0  0  0  0  0  0  0  0
   -3.3967   -2.5533   -0.1551 H   0  0  0  0  0  0  0  0  0  0  0  0
   -4.2006   -1.6092    1.1608 H   0  0  0  0  0  0  0  0  0  0  0  0
   -5.0057   -1.8004   -0.4449 H   0  0  0  0  0  0  0  0  0  0  0  0
   -0.1645    1.7057    1.1253 H   0  0  0  0  0  0  0  0  0  0  0  0
    2.0731    2.3548    1.8413 H   0  0  0  0  0  0  0  0  0  0  0  0
  1 19  1  0
  2 19  1  0
  3 19  1  0
  4 11  2  0
  5  8  1  0
  6  8  2  0
  7 10  1  0
  7 11  1  0
  7 21  1  0
  8 16  1  0
  9 11  1  0
  9 14  1  0
  9 15  1  0
  9 20  1  0
 10 13  2  0
 10 17  1  0
 12 13  1  0
 12 16  2  0
 12 19  1  0
 13 22  1  0
 14 23  1  0
 14 24  1  0
 14 25  1  0
 15 26  1  0
 15 27  1  0
 15 28  1  0
 16 18  1  0
 17 18  2  0
 17 29  1  0
 18 30  1  0
M  CHG  2   5  -1   8   1
M  END
>  <Name>  (9) 
Flutamide

>  <activity>  (9) 
Positive

$$$$
Iproniazid
     RDKit          3D

 26 26  0  0  0  0  0  0  0  0999 V2000
    0.2880   -0.3779    1.8072 O   0  0  0  0  0  0  0  0  0  0  0  0
   -1.6021   -1.1850   -0.1217 N   0  0  0  0  0  0  0  0  0  0  0  0
   -0.2916   -0.7609   -0.4226 N   0  0  0  0  0  0  0  0  0  0  0  0
    4.6790    0.6469   -0.3281 N   0  0  0  0  0  0  0  0  0  0  0  0
   -2.4457   -0.0182    0.1858 C   0  0  0  0  0  0  0  0  0  0  0  0
   -2.6811    0.8173   -1.0795 C   0  0  0  0  0  0  0  0  0  0  0  0
   -3.7899   -0.4852    0.7564 C   0  0  0  0  0  0  0  0  0  0  0  0
    0.6552   -0.4004    0.6005 C   0  0  0  0  0  0  0  0  0  0  0  0
    2.0531   -0.0380    0.2633 C   0  0  0  0  0  0  0  0  0  0  0  0
    2.6782   -0.5289   -0.8965 C   0  0  0  0  0  0  0  0  0  0  0  0
    2.7891    0.7938    1.1244 C   0  0  0  0  0  0  0  0  0  0  0  0
    3.9990   -0.1684   -1.1759 C   0  0  0  0  0  0  0  0  0  0  0  0
    4.1069    1.1299    0.8056 C   0  0  0  0  0  0  0  0  0  0  0  0
   -1.9572    0.6250    0.9512 H   0  0  0  0  0  0  0  0  0  0  0  0
   -1.5534   -1.8259    0.7050 H   0  0  0  0  0  0  0  0  0  0  0  0
   -3.1370    0.1932   -1.8777 H   0  0  0  0  0  0  0  0  0  0  0  0
   -3.3566    1.6712   -0.8580 H   0  0  0  0  0  0  0  0  0  0  0  0
   -1.7214    1.2323   -1.4530 H   0  0  0  0  0  0  0  0  0  0  0  0
   -3.6284   -1.0496    1.6993 H   0  0  0  0  0  0  0  0  0  0  0  0
   -4.3132   -1.1437    0.0302 H   0  0  0  0  0  0  0  0  0  0  0  0
   -4.4372    0.3883    0.9852 H   0  0  0  0  0  0  0  0  0  0  0  0
   -0.0118   -0.7330   -1.4271 H   0  0  0  0  0  0  0  0  0  0  0  0
    2.1701   -1.2049   -1.5703 H   0  0  0  0  0  0  0  0  0  0  0  0
    2.3461    1.1903    2.0297 H   0  0  0  0  0  0  0  0  0  0  0  0
    4.4865   -0.5441   -2.0657 H   0  0  0  0  0  0  0  0  0  0  0  0
    4.6754    1.7759    1.4612 H   0  0  0  0  0  0  0  0  0  0  0  0
  1  8  2  0
  2  3  1  0
  2  5  1  0
  2 15  1  0
  3  8  1  0
  3 22  1  0
  4 12  2  0
  4 13  1  0
  5  6  1  0
  5  7  1  0
  5 14  1  0
  6 16  1  0
  6 17  1  0
  6 18  1  0
  7 19  1  0
  7 20  1  0
  7 21  1  0
  8  9  1  0
  9 10  2  0
  9 11  1  0
 10 12  1  0
 10 23  1  0
 11 13  2  0
 11 24  1  0
 12 25  1  0
 13 26  1  0
M  END
>  <Name>  (10) 
Iproniazid

>  <activity>  (10) 
Positive

$$$$
Isoniazid
     RDKit          3D

 17 17  0  0  0  0  0  0  0  0999 V2000
    1.1966   -0.9475   -2.1380 O   0  0  0  0  0  0  0  0  0  0  0  0
    2.0673   -1.0042    0.0127 N   0  0  0  0  0  0  0  0  0  0  0  0
   -2.6558    1.0771    0.2955 N   0  0  0  0  0  0  0  0  0  0  0  0
    2.1883   -0.3115    1.2266 N   0  0  0  0  0  0  0  0  0  0  0  0
   -0.2498   -0.0671   -0.4813 C   0  0  0  0  0  0  0  0  0  0  0  0
   -0.7984   -0.3444    0.7819 C   0  0  0  0  0  0  0  0  0  0  0  0
   -0.9510    0.7833   -1.3514 C   0  0  0  0  0  0  0  0  0  0  0  0
    1.0228   -0.6888   -0.9165 C   0  0  0  0  0  0  0  0  0  0  0  0
   -2.0083    0.2467    1.1546 C   0  0  0  0  0  0  0  0  0  0  0  0
   -2.1574    1.3539   -0.9380 C   0  0  0  0  0  0  0  0  0  0  0  0
   -0.3128   -1.0281    1.4659 H   0  0  0  0  0  0  0  0  0  0  0  0
   -0.5639    1.0134   -2.3364 H   0  0  0  0  0  0  0  0  0  0  0  0
   -2.4368    0.0383    2.1258 H   0  0  0  0  0  0  0  0  0  0  0  0
   -2.6984    2.0170   -1.5998 H   0  0  0  0  0  0  0  0  0  0  0  0
    2.8796   -1.5687   -0.3267 H   0  0  0  0  0  0  0  0  0  0  0  0
    2.5546   -0.9883    1.9337 H   0  0  0  0  0  0  0  0  0  0  0  0
    2.9233    0.4190    1.0915 H   0  0  0  0  0  0  0  0  0  0  0  0
  1  8  2  0
  2  4  1  0
  2  8  1  0
  2 15  1  0
  3  9  2  0
  3 10  1  0
  4 16  1  0
  4 17  1  0
  5  6  2  0
  5  7  1  0
  5  8  1  0
  6  9  1  0
  6 11  1  0
  7 10  2  0
  7 12  1  0
  9 13  1  0
 10 14  1  0
M  END
>  <Name>  (11) 
Isoniazid

>  <activity>  (11) 
Positive

$$$$
Ketoconazole
     RDKit          3D

 64 68  0  0  0  0  0  0  0  0999 V2000
   -3.5068   -0.7837   -2.3537 Cl  0  0  0  0  0  0  0  0  0  0  0  0
   -7.5705    2.7755   -2.7538 Cl  0  0  0  0  0  0  0  0  0  0  0  0
   -2.6171   -0.5445    0.3959 O   0  0  0  0  0  0  0  0  0  0  0  0
   -4.0762   -0.2273    2.1537 O   0  0  0  0  0  0  0  0  0  0  0  0
   -0.7966    1.3491   -0.5982 O   0  0  0  0  0  0  0  0  0  0  0  0
    8.8107    0.5969    1.8723 O   0  0  0  0  0  0  0  0  0  0  0  0
    4.6499   -0.2046   -0.5777 N   0  0  0  0  0  0  0  0  0  0  0  0
    7.3451   -0.0027    0.1469 N   0  0  0  0  0  0  0  0  0  0  0  0
   -5.7940   -2.2912    1.1094 N   0  0  0  0  0  0  0  0  0  0  0  0
   -7.6358   -2.4852    2.3703 N   0  0  0  0  0  0  0  0  0  0  0  0
   -3.9628   -0.6406    0.8074 C   0  0  0  0  0  0  0  0  0  0  0  0
   -1.9978    0.3443    1.2743 C   0  0  0  0  0  0  0  0  0  0  0  0
   -2.9744    0.5881    2.4001 C   0  0  0  0  0  0  0  0  0  0  0  0
   -4.3919   -2.1194    0.7277 C   0  0  0  0  0  0  0  0  0  0  0  0
   -4.8452    0.2209   -0.1071 C   0  0  0  0  0  0  0  0  0  0  0  0
   -1.6215    1.6363    0.5315 C   0  0  0  0  0  0  0  0  0  0  0  0
    5.5737    0.4263   -1.5316 C   0  0  0  0  0  0  0  0  0  0  0  0
    5.1643   -1.1635    0.4056 C   0  0  0  0  0  0  0  0  0  0  0  0
    7.0287   -0.0041   -1.2925 C   0  0  0  0  0  0  0  0  0  0  0  0
    6.3837   -0.5666    1.1100 C   0  0  0  0  0  0  0  0  0  0  0  0
    3.2638    0.1859   -0.5662 C   0  0  0  0  0  0  0  0  0  0  0  0
   -4.7090    0.2004   -1.5215 C   0  0  0  0  0  0  0  0  0  0  0  0
   -5.8467    1.0436    0.4549 C   0  0  0  0  0  0  0  0  0  0  0  0
    0.5547    0.9710   -0.5489 C   0  0  0  0  0  0  0  0  0  0  0  0
    8.6364    0.4233    0.6351 C   0  0  0  0  0  0  0  0  0  0  0  0
    2.5133    0.1834   -1.7523 C   0  0  0  0  0  0  0  0  0  0  0  0
    2.6510    0.5964    0.6286 C   0  0  0  0  0  0  0  0  0  0  0  0
   -6.8583   -2.3038    0.2906 C   0  0  0  0  0  0  0  0  0  0  0  0
   -6.2893   -2.3972    2.3573 C   0  0  0  0  0  0  0  0  0  0  0  0
    1.1711    0.5723   -1.7401 C   0  0  0  0  0  0  0  0  0  0  0  0
    1.3086    0.9861    0.6401 C   0  0  0  0  0  0  0  0  0  0  0  0
   -5.5473    0.9886   -2.3195 C   0  0  0  0  0  0  0  0  0  0  0  0
   -6.6750    1.8221   -0.3546 C   0  0  0  0  0  0  0  0  0  0  0  0
   -6.5259    1.7967   -1.7401 C   0  0  0  0  0  0  0  0  0  0  0  0
   -7.9871   -2.4264    1.0687 C   0  0  0  0  0  0  0  0  0  0  0  0
    9.7872    0.6829   -0.2902 C   0  0  0  0  0  0  0  0  0  0  0  0
   -1.0822   -0.1395    1.6763 H   0  0  0  0  0  0  0  0  0  0  0  0
   -3.3100    1.6471    2.4569 H   0  0  0  0  0  0  0  0  0  0  0  0
   -2.5232    0.3081    3.3761 H   0  0  0  0  0  0  0  0  0  0  0  0
   -3.7509   -2.7226    1.4076 H   0  0  0  0  0  0  0  0  0  0  0  0
   -4.2355   -2.5194   -0.2962 H   0  0  0  0  0  0  0  0  0  0  0  0
   -2.5474    2.1258    0.1601 H   0  0  0  0  0  0  0  0  0  0  0  0
   -1.1186    2.3569    1.2110 H   0  0  0  0  0  0  0  0  0  0  0  0
    5.2889    0.1607   -2.5714 H   0  0  0  0  0  0  0  0  0  0  0  0
    5.5064    1.5306   -1.4204 H   0  0  0  0  0  0  0  0  0  0  0  0
    5.4605   -2.0971   -0.1199 H   0  0  0  0  0  0  0  0  0  0  0  0
    4.3924   -1.4371    1.1567 H   0  0  0  0  0  0  0  0  0  0  0  0
    7.6838    0.6936   -1.8542 H   0  0  0  0  0  0  0  0  0  0  0  0
    7.1876   -1.0268   -1.6974 H   0  0  0  0  0  0  0  0  0  0  0  0
    6.8746   -1.3645    1.7089 H   0  0  0  0  0  0  0  0  0  0  0  0
    6.0461    0.2367    1.8004 H   0  0  0  0  0  0  0  0  0  0  0  0
   -6.0070    1.0788    1.5243 H   0  0  0  0  0  0  0  0  0  0  0  0
    2.9596   -0.1355   -2.6848 H   0  0  0  0  0  0  0  0  0  0  0  0
    3.2184    0.6325    1.5499 H   0  0  0  0  0  0  0  0  0  0  0  0
   -6.8184   -2.2152   -0.7876 H   0  0  0  0  0  0  0  0  0  0  0  0
   -5.6806   -2.4020    3.2523 H   0  0  0  0  0  0  0  0  0  0  0  0
    0.6033    0.5580   -2.6620 H   0  0  0  0  0  0  0  0  0  0  0  0
    0.8745    1.3038    1.5771 H   0  0  0  0  0  0  0  0  0  0  0  0
   -5.4382    0.9719   -3.3969 H   0  0  0  0  0  0  0  0  0  0  0  0
   -7.4375    2.4429    0.0985 H   0  0  0  0  0  0  0  0  0  0  0  0
   -9.0070   -2.4629    0.7103 H   0  0  0  0  0  0  0  0  0  0  0  0
    9.6366    1.6500   -0.8134 H   0  0  0  0  0  0  0  0  0  0  0  0
   10.7387    0.7336    0.2809 H   0  0  0  0  0  0  0  0  0  0  0  0
    9.8721   -0.1376   -1.0330 H   0  0  0  0  0  0  0  0  0  0  0  0
  1 22  1  0
  2 34  1  0
  3 11  1  0
  3 12  1  0
  4 11  1  0
  4 13  1  0
  5 16  1  0
  5 24  1  0
  6 25  2  0
  7 17  1  0
  7 18  1  0
  7 21  1  0
  8 19  1  0
  8 20  1  0
  8 25  1  0
  9 14  1  0
  9 28  1  0
  9 29  1  0
 10 29  2  0
 10 35  1  0
 11 14  1  0
 11 15  1  0
 12 13  1  0
 12 16  1  0
 12 37  1  0
 13 38  1  0
 13 39  1  0
 14 40  1  0
 14 41  1  0
 15 22  2  0
 15 23  1  0
 16 42  1  0
 16 43  1  0
 17 19  1  0
 17 44  1  0
 17 45  1  0
 18 20  1  0
 18 46  1  0
 18 47  1  0
 19 48  1  0
 19 49  1  0
 20 50  1  0
 20 51  1  0
 21 26  2  0
 21 27  1  0
 22 32  1  0
 23 33  2  0
 23 52  1  0
 24 30  2  0
 24 31  1  0
 25 36  1  0
 26 30  1  0
 26 53  1  0
 27 31  2  0
 27 54  1  0
 28 35  2  0
 28 55  1  0
 29 56  1  0
 30 57  1  0
 31 58  1  0
 32 34  2  0
 32 59  1  0
 33 34  1  0
 33 60  1  0
 35 61  1  0
 36 62  1  0
 36 63  1  0
 36 64  1  0
M  END
>  <Name>  (12) 
Ketoconazole

>  <activity>  (12) 
Positive

$$$$
Naltrexone
     RDKit          3D

 48 53  0  0  0  0  0  0  0  0999 V2000
   -3.6847    0.2229   -0.5788 O   0  0  0  0  0  0  0  0  0  0  0  0
   -1.2156    0.1700    1.7670 O   0  0  0  0  0  0  0  0  0  0  0  0
   -4.3092   -2.0913    0.9040 O   0  0  0  0  0  0  0  0  0  0  0  0
   -4.7080    2.9817   -0.7706 O   0  0  0  0  0  0  0  0  0  0  0  0
    1.4895   -0.7536   -0.6070 N   0  0  0  0  0  0  0  0  0  0  0  0
   -1.3871   -0.4012   -0.5953 C   0  0  0  0  0  0  0  0  0  0  0  0
   -0.5939   -0.5672    0.7291 C   0  0  0  0  0  0  0  0  0  0  0  0
    0.8220    0.0356    0.4610 C   0  0  0  0  0  0  0  0  0  0  0  0
   -2.8522   -0.9438   -0.5506 C   0  0  0  0  0  0  0  0  0  0  0  0
   -0.6450   -0.9884   -1.8342 C   0  0  0  0  0  0  0  0  0  0  0  0
   -1.5833    1.0570   -0.7608 C   0  0  0  0  0  0  0  0  0  0  0  0
   -0.6135   -2.0567    1.1222 C   0  0  0  0  0  0  0  0  0  0  0  0
    0.8318   -0.5834   -1.9152 C   0  0  0  0  0  0  0  0  0  0  0  0
    0.7209    1.5840    0.1307 C   0  0  0  0  0  0  0  0  0  0  0  0
   -0.6145    2.0193   -0.4633 C   0  0  0  0  0  0  0  0  0  0  0  0
    2.9494   -0.5388   -0.6894 C   0  0  0  0  0  0  0  0  0  0  0  0
   -2.0532   -2.4986    1.4695 C   0  0  0  0  0  0  0  0  0  0  0  0
    3.6556   -1.2137    0.4948 C   0  0  0  0  0  0  0  0  0  0  0  0
   -3.1443   -1.8408    0.6358 C   0  0  0  0  0  0  0  0  0  0  0  0
   -2.9122    1.3607   -0.7382 C   0  0  0  0  0  0  0  0  0  0  0  0
    4.1631   -0.2911    1.5942 C   0  0  0  0  0  0  0  0  0  0  0  0
    5.1399   -0.8954    0.5993 C   0  0  0  0  0  0  0  0  0  0  0  0
   -1.0131    3.3702   -0.4743 C   0  0  0  0  0  0  0  0  0  0  0  0
   -3.3482    2.6852   -0.7323 C   0  0  0  0  0  0  0  0  0  0  0  0
   -2.3744    3.7035   -0.6502 C   0  0  0  0  0  0  0  0  0  0  0  0
    1.4021   -0.0722    1.4029 H   0  0  0  0  0  0  0  0  0  0  0  0
   -3.0870   -1.5324   -1.4651 H   0  0  0  0  0  0  0  0  0  0  0  0
   -1.1525   -0.6640   -2.7700 H   0  0  0  0  0  0  0  0  0  0  0  0
   -0.7049   -2.0977   -1.8143 H   0  0  0  0  0  0  0  0  0  0  0  0
    0.0397   -2.2200    2.0070 H   0  0  0  0  0  0  0  0  0  0  0  0
   -0.2108   -2.6967    0.3104 H   0  0  0  0  0  0  0  0  0  0  0  0
    0.9273    0.4602   -2.2846 H   0  0  0  0  0  0  0  0  0  0  0  0
    1.3166   -1.2401   -2.6708 H   0  0  0  0  0  0  0  0  0  0  0  0
    1.5349    1.9301   -0.5345 H   0  0  0  0  0  0  0  0  0  0  0  0
    0.8502    2.1336    1.0885 H   0  0  0  0  0  0  0  0  0  0  0  0
    3.3502   -1.0254   -1.6058 H   0  0  0  0  0  0  0  0  0  0  0  0
    3.2035    0.5386   -0.7683 H   0  0  0  0  0  0  0  0  0  0  0  0
    3.3848   -2.2486    0.7950 H   0  0  0  0  0  0  0  0  0  0  0  0
   -2.1302   -3.6019    1.3641 H   0  0  0  0  0  0  0  0  0  0  0  0
   -2.2464   -2.2535    2.5366 H   0  0  0  0  0  0  0  0  0  0  0  0
    4.1954   -0.7573    2.6013 H   0  0  0  0  0  0  0  0  0  0  0  0
    3.9772    0.7945    1.4478 H   0  0  0  0  0  0  0  0  0  0  0  0
    5.5398   -0.1644   -0.1361 H   0  0  0  0  0  0  0  0  0  0  0  0
    5.7602   -1.7138    1.0221 H   0  0  0  0  0  0  0  0  0  0  0  0
   -0.6617    0.0705    2.5855 H   0  0  0  0  0  0  0  0  0  0  0  0
   -0.2930    4.1525   -0.2704 H   0  0  0  0  0  0  0  0  0  0  0  0
   -2.6762    4.7428   -0.6338 H   0  0  0  0  0  0  0  0  0  0  0  0
   -5.0390    3.9392   -0.7545 H   0  0  0  0  0  0  0  0  0  0  0  0
  1  9  1  0
  1 20  1  0
  7  2  1  0
  2 45  1  0
  3 19  2  0
  4 24  1  0
  4 48  1  0
  5  8  1  0
  5 13  1  0
  5 16  1  0
  6  7  1  0
  6  9  1  0
  6 10  1  0
  6 11  1  0
  7  8  1  0
  7 12  1  0
  8 14  1  0
  8 26  1  0
  9 19  1  0
  9 27  1  0
 10 13  1  0
 10 28  1  0
 10 29  1  0
 11 15  2  0
 11 20  1  0
 12 17  1  0
 12 30  1  0
 12 31  1  0
 13 32  1  0
 13 33  1  0
 14 15  1  0
 14 34  1  0
 14 35  1  0
 15 23  1  0
 16 18  1  0
 16 36  1  0
 16 37  1  0
 17 19  1  0
 17 39  1  0
 17 40  1  0
 18 21  1  0
 18 22  1  0
 18 38  1  0
 20 24  2  0
 21 22  1  0
 21 41  1  0
 21 42  1  0
 22 43  1  0
 22 44  1  0
 23 25  2  0
 23 46  1  0
 24 25  1  0
 25 47  1  0
M  END
>  <Name>  (13) 
Naltrexone

>  <activity>  (13) 
Positive

$$$$
Nefazodone
     RDKit          3D

 65 68  0  0  0  0  0  0  0  0999 V2000
    8.6774    3.9013   -1.4824 Cl  0  0  0  0  0  0  0  0  0  0  0  0
   -1.1262   -1.9475    1.2055 O   0  0  0  0  0  0  0  0  0  0  0  0
   -4.7359    0.8373    1.7816 O   0  0  0  0  0  0  0  0  0  0  0  0
    2.8833    0.1331   -0.1884 N   0  0  0  0  0  0  0  0  0  0  0  0
    5.2650    0.7729    0.8999 N   0  0  0  0  0  0  0  0  0  0  0  0
   -0.8116   -2.1573   -1.0688 N   0  0  0  0  0  0  0  0  0  0  0  0
   -2.8104   -1.5468   -0.3158 N   0  0  0  0  0  0  0  0  0  0  0  0
   -1.5757   -1.9747   -2.1359 N   0  0  0  0  0  0  0  0  0  0  0  0
    2.9737    1.5267    0.3121 C   0  0  0  0  0  0  0  0  0  0  0  0
    3.3805   -0.8233    0.8199 C   0  0  0  0  0  0  0  0  0  0  0  0
    4.2340    1.7838    1.1664 C   0  0  0  0  0  0  0  0  0  0  0  0
    4.8944   -0.6473    0.9721 C   0  0  0  0  0  0  0  0  0  0  0  0
    1.4950   -0.1841   -0.5843 C   0  0  0  0  0  0  0  0  0  0  0  0
    1.4582   -1.3474   -1.6013 C   0  0  0  0  0  0  0  0  0  0  0  0
    0.6019   -2.5277   -1.1233 C   0  0  0  0  0  0  0  0  0  0  0  0
    6.6400    1.1546    0.6876 C   0  0  0  0  0  0  0  0  0  0  0  0
   -1.5540   -1.8912    0.0205 C   0  0  0  0  0  0  0  0  0  0  0  0
   -2.7864   -1.5924   -1.6706 C   0  0  0  0  0  0  0  0  0  0  0  0
    6.9596    2.2079   -0.1892 C   0  0  0  0  0  0  0  0  0  0  0  0
    7.6828    0.4679    1.3375 C   0  0  0  0  0  0  0  0  0  0  0  0
   -3.8807   -1.0969    0.5764 C   0  0  0  0  0  0  0  0  0  0  0  0
   -3.9523   -1.3018   -2.5680 C   0  0  0  0  0  0  0  0  0  0  0  0
    8.2927    2.5814   -0.3919 C   0  0  0  0  0  0  0  0  0  0  0  0
    9.0129    0.8428    1.1309 C   0  0  0  0  0  0  0  0  0  0  0  0
   -3.7506    0.4037    0.8433 C   0  0  0  0  0  0  0  0  0  0  0  0
    9.3182    1.9000    0.2703 C   0  0  0  0  0  0  0  0  0  0  0  0
   -4.8402   -2.5319   -2.7174 C   0  0  0  0  0  0  0  0  0  0  0  0
   -6.0967    1.0464    1.5031 C   0  0  0  0  0  0  0  0  0  0  0  0
   -6.6375    0.9361    0.2056 C   0  0  0  0  0  0  0  0  0  0  0  0
   -6.9428    1.3886    2.5666 C   0  0  0  0  0  0  0  0  0  0  0  0
   -8.0006    1.1592   -0.0105 C   0  0  0  0  0  0  0  0  0  0  0  0
   -8.3051    1.6135    2.3464 C   0  0  0  0  0  0  0  0  0  0  0  0
   -8.8341    1.4968    1.0584 C   0  0  0  0  0  0  0  0  0  0  0  0
    2.0787    1.7919    0.9218 H   0  0  0  0  0  0  0  0  0  0  0  0
    2.9964    2.2104   -0.5647 H   0  0  0  0  0  0  0  0  0  0  0  0
    3.1815   -1.8722    0.5116 H   0  0  0  0  0  0  0  0  0  0  0  0
    2.8780   -0.6562    1.7997 H   0  0  0  0  0  0  0  0  0  0  0  0
    3.9612    1.7270    2.2424 H   0  0  0  0  0  0  0  0  0  0  0  0
    4.6076    2.8143    0.9886 H   0  0  0  0  0  0  0  0  0  0  0  0
    5.3991   -1.1967    0.1483 H   0  0  0  0  0  0  0  0  0  0  0  0
    5.2212   -1.0780    1.9417 H   0  0  0  0  0  0  0  0  0  0  0  0
    1.0270    0.6994   -1.0768 H   0  0  0  0  0  0  0  0  0  0  0  0
    0.8778   -0.3965    0.3168 H   0  0  0  0  0  0  0  0  0  0  0  0
    1.0585   -0.9812   -2.5737 H   0  0  0  0  0  0  0  0  0  0  0  0
    2.4864   -1.7193   -1.8069 H   0  0  0  0  0  0  0  0  0  0  0  0
    0.9521   -2.8796   -0.1282 H   0  0  0  0  0  0  0  0  0  0  0  0
    0.7244   -3.3723   -1.8353 H   0  0  0  0  0  0  0  0  0  0  0  0
    6.1766    2.7281   -0.7270 H   0  0  0  0  0  0  0  0  0  0  0  0
    7.4688   -0.3444    2.0192 H   0  0  0  0  0  0  0  0  0  0  0  0
   -3.8169   -1.6479    1.5395 H   0  0  0  0  0  0  0  0  0  0  0  0
   -4.8704   -1.3250    0.1318 H   0  0  0  0  0  0  0  0  0  0  0  0
   -4.5430   -0.4566   -2.1608 H   0  0  0  0  0  0  0  0  0  0  0  0
   -3.5790   -0.9995   -3.5704 H   0  0  0  0  0  0  0  0  0  0  0  0
    9.8072    0.3157    1.6429 H   0  0  0  0  0  0  0  0  0  0  0  0
   -2.7493    0.5983    1.2829 H   0  0  0  0  0  0  0  0  0  0  0  0
   -3.8170    0.9888   -0.0981 H   0  0  0  0  0  0  0  0  0  0  0  0
   10.3505    2.1867    0.1159 H   0  0  0  0  0  0  0  0  0  0  0  0
   -4.2646   -3.3700   -3.1645 H   0  0  0  0  0  0  0  0  0  0  0  0
   -5.6952   -2.2926   -3.3836 H   0  0  0  0  0  0  0  0  0  0  0  0
   -5.2386   -2.8497   -1.7305 H   0  0  0  0  0  0  0  0  0  0  0  0
   -6.0177    0.6892   -0.6433 H   0  0  0  0  0  0  0  0  0  0  0  0
   -6.5409    1.4819    3.5682 H   0  0  0  0  0  0  0  0  0  0  0  0
   -8.4104    1.0731   -1.0088 H   0  0  0  0  0  0  0  0  0  0  0  0
   -8.9506    1.8782    3.1737 H   0  0  0  0  0  0  0  0  0  0  0  0
   -9.8884    1.6714    0.8878 H   0  0  0  0  0  0  0  0  0  0  0  0
  1 23  1  0
  2 17  2  0
  3 25  1  0
  3 28  1  0
  4  9  1  0
  4 10  1  0
  4 13  1  0
  5 11  1  0
  5 12  1  0
  5 16  1  0
  6  8  1  0
  6 15  1  0
  6 17  1  0
  7 17  1  0
  7 18  1  0
  7 21  1  0
  8 18  2  0
  9 11  1  0
  9 34  1  0
  9 35  1  0
 10 12  1  0
 10 36  1  0
 10 37  1  0
 11 38  1  0
 11 39  1  0
 12 40  1  0
 12 41  1  0
 13 14  1  0
 13 42  1  0
 13 43  1  0
 14 15  1  0
 14 44  1  0
 14 45  1  0
 15 46  1  0
 15 47  1  0
 16 19  2  0
 16 20  1  0
 18 22  1  0
 19 23  1  0
 19 48  1  0
 20 24  2  0
 20 49  1  0
 21 25  1  0
 21 50  1  0
 21 51  1  0
 22 27  1  0
 22 52  1  0
 22 53  1  0
 23 26  2  0
 24 26  1  0
 24 54  1  0
 25 55  1  0
 25 56  1  0
 26 57  1  0
 27 58  1  0
 27 59  1  0
 27 60  1  0
 28 29  2  0
 28 30  1  0
 29 31  1  0
 29 61  1  0
 30 32  2  0
 30 62  1  0
 31 33  2  0
 31 63  1  0
 32 33  1  0
 32 64  1  0
 33 65  1  0
M  END
>  <Name>  (14) 
Nefazodone

>  <activity>  (14) 
Positive

$$$$
Nevirapine
     RDKit          3D

 34 37  0  0  0  0  0  0  0  0999 V2000
    0.9758   -2.6456    1.9153 O   0  0  0  0  0  0  0  0  0  0  0  0
   -0.7625    0.7269    0.2937 N   0  0  0  0  0  0  0  0  0  0  0  0
    1.5937   -0.9003    0.5259 N   0  0  0  0  0  0  0  0  0  0  0  0
    0.1829    1.7195   -1.6888 N   0  0  0  0  0  0  0  0  0  0  0  0
   -2.8360   -0.4958    0.1952 N   0  0  0  0  0  0  0  0  0  0  0  0
   -1.3954    1.9655    0.7507 C   0  0  0  0  0  0  0  0  0  0  0  0
   -1.5750    2.0381    2.2584 C   0  0  0  0  0  0  0  0  0  0  0  0
   -0.4791    2.8471    1.5837 C   0  0  0  0  0  0  0  0  0  0  0  0
    0.2788    0.8052   -0.6845 C   0  0  0  0  0  0  0  0  0  0  0  0
   -1.4887   -0.5031    0.4031 C   0  0  0  0  0  0  0  0  0  0  0  0
    1.4008   -0.0381   -0.6079 C   0  0  0  0  0  0  0  0  0  0  0  0
   -0.8383   -1.7124    0.7263 C   0  0  0  0  0  0  0  0  0  0  0  0
    2.4025    0.0720   -1.6002 C   0  0  0  0  0  0  0  0  0  0  0  0
    0.6000   -1.7729    1.0859 C   0  0  0  0  0  0  0  0  0  0  0  0
   -1.6150   -2.8817    0.8147 C   0  0  0  0  0  0  0  0  0  0  0  0
    2.2616    1.0251   -2.6186 C   0  0  0  0  0  0  0  0  0  0  0  0
    1.1370    1.8454   -2.6443 C   0  0  0  0  0  0  0  0  0  0  0  0
   -3.5894   -1.6221    0.2739 C   0  0  0  0  0  0  0  0  0  0  0  0
    3.6333   -0.7931   -1.5675 C   0  0  0  0  0  0  0  0  0  0  0  0
   -2.9886   -2.8394    0.5807 C   0  0  0  0  0  0  0  0  0  0  0  0
   -2.1555    2.4606    0.1095 H   0  0  0  0  0  0  0  0  0  0  0  0
   -1.2017    1.1617    2.8308 H   0  0  0  0  0  0  0  0  0  0  0  0
   -2.4469    2.6419    2.5867 H   0  0  0  0  0  0  0  0  0  0  0  0
    0.5450    2.4512    1.7555 H   0  0  0  0  0  0  0  0  0  0  0  0
   -0.6981    3.9330    1.5100 H   0  0  0  0  0  0  0  0  0  0  0  0
    2.5681   -1.0194    0.8840 H   0  0  0  0  0  0  0  0  0  0  0  0
   -1.1585   -3.8305    1.0688 H   0  0  0  0  0  0  0  0  0  0  0  0
    3.0192    1.1378   -3.3844 H   0  0  0  0  0  0  0  0  0  0  0  0
    1.0219    2.5853   -3.4250 H   0  0  0  0  0  0  0  0  0  0  0  0
   -4.6555   -1.5704    0.0981 H   0  0  0  0  0  0  0  0  0  0  0  0
    4.3280   -0.4225   -0.7850 H   0  0  0  0  0  0  0  0  0  0  0  0
    4.1622   -0.7816   -2.5444 H   0  0  0  0  0  0  0  0  0  0  0  0
    3.3567   -1.8460   -1.3477 H   0  0  0  0  0  0  0  0  0  0  0  0
   -3.5833   -3.7413    0.6473 H   0  0  0  0  0  0  0  0  0  0  0  0
  1 14  2  0
  2  6  1  0
  2  9  1  0
  2 10  1  0
  3 11  1  0
  3 14  1  0
  3 26  1  0
  4  9  1  0
  4 17  2  0
  5 10  2  0
  5 18  1  0
  6  7  1  0
  6  8  1  0
  6 21  1  0
  7  8  1  0
  7 22  1  0
  7 23  1  0
  8 24  1  0
  8 25  1  0
  9 11  2  0
 10 12  1  0
 11 13  1  0
 12 14  1  0
 12 15  2  0
 13 16  2  0
 13 19  1  0
 15 20  1  0
 15 27  1  0
 16 17  1  0
 16 28  1  0
 17 29  1  0
 18 20  2  0
 18 30  1  0
 19 31  1  0
 19 32  1  0
 19 33  1  0
 20 34  1  0
M  END
>  <Name>  (15) 
Nevirapine

>  <activity>  (15) 
Positive

$$$$
Pemoline
     RDKit          3D

 21 22  0  0  0  0  0  0  0  0999 V2000
    1.7791   -0.4958    0.5278 O   0  0  0  0  0  0  0  0  0  0  0  0
    0.7883   -0.3373   -2.7841 O   0  0  0  0  0  0  0  0  0  0  0  0
    2.4712    0.5197   -1.3710 N   0  0  0  0  0  0  0  0  0  0  0  0
    3.7886    0.9477    0.5667 N   0  0  0  0  0  0  0  0  0  0  0  0
    0.8166   -0.9397   -0.4184 C   0  0  0  0  0  0  0  0  0  0  0  0
   -0.5711   -0.4884   -0.0330 C   0  0  0  0  0  0  0  0  0  0  0  0
    1.3091   -0.2487   -1.6413 C   0  0  0  0  0  0  0  0  0  0  0  0
   -1.6315   -1.4106   -0.0203 C   0  0  0  0  0  0  0  0  0  0  0  0
   -0.8256    0.8532    0.3090 C   0  0  0  0  0  0  0  0  0  0  0  0
    2.6943    0.3380   -0.1117 C   0  0  0  0  0  0  0  0  0  0  0  0
   -2.9211   -0.9992    0.3311 C   0  0  0  0  0  0  0  0  0  0  0  0
   -2.1167    1.2595    0.6596 C   0  0  0  0  0  0  0  0  0  0  0  0
   -3.1634    0.3342    0.6710 C   0  0  0  0  0  0  0  0  0  0  0  0
    0.8874   -2.0417   -0.5468 H   0  0  0  0  0  0  0  0  0  0  0  0
   -1.4619   -2.4474   -0.2832 H   0  0  0  0  0  0  0  0  0  0  0  0
   -0.0259    1.5832    0.3028 H   0  0  0  0  0  0  0  0  0  0  0  0
   -3.7332   -1.7147    0.3391 H   0  0  0  0  0  0  0  0  0  0  0  0
   -2.3058    2.2924    0.9218 H   0  0  0  0  0  0  0  0  0  0  0  0
   -4.1623    0.6505    0.9423 H   0  0  0  0  0  0  0  0  0  0  0  0
    3.9316    0.7767    1.5864 H   0  0  0  0  0  0  0  0  0  0  0  0
    4.4523    1.5683    0.0524 H   0  0  0  0  0  0  0  0  0  0  0  0
  1  5  1  0
  1 10  1  0
  2  7  2  0
  3  7  1  0
  3 10  2  0
  4 10  1  0
  4 20  1  0
  4 21  1  0
  5  6  1  0
  5  7  1  0
  5 14  1  0
  6  8  2  0
  6  9  1  0
  8 11  1  0
  8 15  1  0
  9 12  2  0
  9 16  1  0
 11 13  2  0
 11 17  1  0
 12 13  1  0
 12 18  1  0
 13 19  1  0
M  END
>  <Name>  (16) 
Pemoline

>  <activity>  (16) 
Positive

$$$$
Ticrynafen
     RDKit          3D

 28 29  0  0  0  0  0  0  0  0999 V2000
    1.1504   -2.5946    2.0548 Cl  0  0  0  0  0  0  0  0  0  0  0  0
   -1.6190   -3.3865    0.7307 Cl  0  0  0  0  0  0  0  0  0  0  0  0
    4.6756    1.4813    1.1179 S   0  0  0  0  0  0  0  0  0  0  0  0
   -2.8390   -1.1864   -0.9646 O   0  0  0  0  0  0  0  0  0  0  0  0
    2.3266    0.1470    2.5752 O   0  0  0  0  0  0  0  0  0  0  0  0
   -5.7952    0.2093    0.7871 O   0  0  0  0  0  0  0  0  0  0  0  0
   -4.1436    1.1125   -0.5248 O   0  0  0  0  0  0  0  0  0  0  0  0
    0.8903   -0.1839    0.7238 C   0  0  0  0  0  0  0  0  0  0  0  0
   -1.5989   -0.8773   -0.3950 C   0  0  0  0  0  0  0  0  0  0  0  0
    0.3066   -1.4355    1.0218 C   0  0  0  0  0  0  0  0  0  0  0  0
    0.2254    0.6961   -0.1436 C   0  0  0  0  0  0  0  0  0  0  0  0
    2.1768    0.2309    1.3266 C   0  0  0  0  0  0  0  0  0  0  0  0
   -0.9346   -1.7847    0.4521 C   0  0  0  0  0  0  0  0  0  0  0  0
   -1.0018    0.3468   -0.7042 C   0  0  0  0  0  0  0  0  0  0  0  0
    3.2859    0.7549    0.5069 C   0  0  0  0  0  0  0  0  0  0  0  0
    3.3975    0.6984   -0.8798 C   0  0  0  0  0  0  0  0  0  0  0  0
   -4.0419   -1.2650   -0.1982 C   0  0  0  0  0  0  0  0  0  0  0  0
    4.5876    1.2559   -1.3628 C   0  0  0  0  0  0  0  0  0  0  0  0
    5.4206    1.7453   -0.3657 C   0  0  0  0  0  0  0  0  0  0  0  0
   -4.6496    0.0885    0.0078 C   0  0  0  0  0  0  0  0  0  0  0  0
    0.6524    1.6639   -0.3773 H   0  0  0  0  0  0  0  0  0  0  0  0
   -1.4994    1.0386   -1.3716 H   0  0  0  0  0  0  0  0  0  0  0  0
    2.6533    0.2563   -1.5287 H   0  0  0  0  0  0  0  0  0  0  0  0
   -3.8506   -1.7299    0.7912 H   0  0  0  0  0  0  0  0  0  0  0  0
   -4.7712   -1.8987   -0.7440 H   0  0  0  0  0  0  0  0  0  0  0  0
    4.8386    1.2946   -2.4144 H   0  0  0  0  0  0  0  0  0  0  0  0
    6.3853    2.2094   -0.5193 H   0  0  0  0  0  0  0  0  0  0  0  0
   -6.2280    1.1127    0.9383 H   0  0  0  0  0  0  0  0  0  0  0  0
  1 10  1  0
  2 13  1  0
  3 15  1  0
  3 19  1  0
  4  9  1  0
  4 17  1  0
  5 12  2  0
  6 20  1  0
  6 28  1  0
  7 20  2  0
  8 10  2  0
  8 11  1  0
  8 12  1  0
  9 13  2  0
  9 14  1  0
 10 13  1  0
 11 14  2  0
 11 21  1  0
 12 15  1  0
 14 22  1  0
 15 16  2  0
 16 18  1  0
 16 23  1  0
 17 20  1  0
 17 24  1  0
 17 25  1  0
 18 19  2  0
 18 26  1  0
 19 27  1  0
M  END
>  <Name>  (17) 
Ticrynafen

>  <activity>  (17) 
Positive

$$$$
Tolcapone
     RDKit          3D

 31 32  0  0  0  0  0  0  0  0999 V2000
    0.1960   -2.6927    0.5800 O   0  0  0  0  0  0  0  0  0  0  0  0
   -2.7289    2.4756    0.8942 O   0  0  0  0  0  0  0  0  0  0  0  0
   -4.8942    1.1150   -0.2385 O   0  0  0  0  0  0  0  0  0  0  0  0
   -4.4103   -2.6828   -1.8479 O   0  0  0  0  0  0  0  0  0  0  0  0
   -5.7265   -1.6507   -0.3285 O   0  0  0  0  0  0  0  0  0  0  0  0
   -4.6239   -1.6974   -0.9115 N   0  0  0  0  0  0  0  0  0  0  0  0
   -1.1599   -0.7941    0.1865 C   0  0  0  0  0  0  0  0  0  0  0  0
    1.4384   -0.7204    0.1752 C   0  0  0  0  0  0  0  0  0  0  0  0
    0.1598   -1.4576    0.3253 C   0  0  0  0  0  0  0  0  0  0  0  0
   -2.2549   -1.5095   -0.3213 C   0  0  0  0  0  0  0  0  0  0  0  0
   -1.3480    0.5306    0.6085 C   0  0  0  0  0  0  0  0  0  0  0  0
   -3.5203   -0.9111   -0.4355 C   0  0  0  0  0  0  0  0  0  0  0  0
   -2.5938    1.1496    0.4823 C   0  0  0  0  0  0  0  0  0  0  0  0
    3.8870    0.6457   -0.1176 C   0  0  0  0  0  0  0  0  0  0  0  0
    1.5516    0.3583   -0.7202 C   0  0  0  0  0  0  0  0  0  0  0  0
    2.5736   -1.1283    0.8964 C   0  0  0  0  0  0  0  0  0  0  0  0
   -3.6825    0.4434   -0.0591 C   0  0  0  0  0  0  0  0  0  0  0  0
    2.7664    1.0344   -0.8656 C   0  0  0  0  0  0  0  0  0  0  0  0
    3.7879   -0.4512    0.7503 C   0  0  0  0  0  0  0  0  0  0  0  0
    5.2001    1.3462   -0.3038 C   0  0  0  0  0  0  0  0  0  0  0  0
   -2.1272   -2.5437   -0.6177 H   0  0  0  0  0  0  0  0  0  0  0  0
   -0.5281    1.0884    1.0441 H   0  0  0  0  0  0  0  0  0  0  0  0
    0.7063    0.6680   -1.3217 H   0  0  0  0  0  0  0  0  0  0  0  0
    2.5191   -1.9667    1.5799 H   0  0  0  0  0  0  0  0  0  0  0  0
    2.8339    1.8581   -1.5656 H   0  0  0  0  0  0  0  0  0  0  0  0
    4.6508   -0.7826    1.3149 H   0  0  0  0  0  0  0  0  0  0  0  0
    5.0407    2.4133   -0.5686 H   0  0  0  0  0  0  0  0  0  0  0  0
    5.7699    0.8521   -1.1183 H   0  0  0  0  0  0  0  0  0  0  0  0
    5.7992    1.3106    0.6310 H   0  0  0  0  0  0  0  0  0  0  0  0
   -3.6073    2.9756    0.8282 H   0  0  0  0  0  0  0  0  0  0  0  0
   -5.6748    0.7242   -0.7488 H   0  0  0  0  0  0  0  0  0  0  0  0
  1  9  2  0
  2 13  1  0
  2 30  1  0
  3 17  1  0
  3 31  1  0
  4  6  1  0
  5  6  2  0
  6 12  1  0
  7  9  1  0
  7 10  2  0
  7 11  1  0
  8  9  1  0
  8 15  2  0
  8 16  1  0
 10 12  1  0
 10 21  1  0
 11 13  2  0
 11 22  1  0
 12 17  2  0
 13 17  1  0
 14 18  2  0
 14 19  1  0
 14 20  1  0
 15 18  1  0
 15 23  1  0
 16 19  2  0
 16 24  1  0
 18 25  1  0
 19 26  1  0
 20 27  1  0
 20 28  1  0
 20 29  1  0
M  CHG  2   4  -1   6   1
M  END
>  <Name>  (18) 
Tolcapone

>  <activity>  (18) 
Positive

$$$$
Troglitazone
     RDKit          3D

 58 61  0  0  0  0  0  0  0  0999 V2000
    7.1593    1.2501    0.1650 S   0  0  0  0  0  0  0  0  0  0  0  0
   -2.1949    0.8576   -0.3514 O   0  0  0  0  0  0  0  0  0  0  0  0
    0.9735   -0.6990    0.6237 O   0  0  0  0  0  0  0  0  0  0  0  0
   -7.7827    0.3156   -0.4933 O   0  0  0  0  0  0  0  0  0  0  0  0
    9.3589   -1.9654    0.6130 O   0  0  0  0  0  0  0  0  0  0  0  0
    9.3948    2.4956   -0.6300 O   0  0  0  0  0  0  0  0  0  0  0  0
    9.6687    0.2466   -0.0627 N   0  0  0  0  0  0  0  0  0  0  0  0
   -1.3460    0.0444    0.4578 C   0  0  0  0  0  0  0  0  0  0  0  0
   -1.8705   -1.4064    0.4299 C   0  0  0  0  0  0  0  0  0  0  0  0
   -3.3517   -1.4880    0.8227 C   0  0  0  0  0  0  0  0  0  0  0  0
   -4.2064   -0.4113    0.1775 C   0  0  0  0  0  0  0  0  0  0  0  0
   -3.5895    0.7131   -0.4069 C   0  0  0  0  0  0  0  0  0  0  0  0
    0.0727    0.1038   -0.1388 C   0  0  0  0  0  0  0  0  0  0  0  0
   -1.3288    0.6096    1.8925 C   0  0  0  0  0  0  0  0  0  0  0  0
   -5.6168   -0.5083    0.1863 C   0  0  0  0  0  0  0  0  0  0  0  0
   -4.3581    1.6967   -1.0589 C   0  0  0  0  0  0  0  0  0  0  0  0
   -5.7628    1.5328   -1.1652 C   0  0  0  0  0  0  0  0  0  0  0  0
   -6.3889    0.4534   -0.4966 C   0  0  0  0  0  0  0  0  0  0  0  0
   -6.3030   -1.6745    0.8639 C   0  0  0  0  0  0  0  0  0  0  0  0
   -3.6649    2.8984   -1.6624 C   0  0  0  0  0  0  0  0  0  0  0  0
   -6.6099    2.5088   -1.9544 C   0  0  0  0  0  0  0  0  0  0  0  0
    2.3370   -0.8541    0.3360 C   0  0  0  0  0  0  0  0  0  0  0  0
    5.0845   -1.2307   -0.1614 C   0  0  0  0  0  0  0  0  0  0  0  0
    2.9564   -0.2170   -0.7560 C   0  0  0  0  0  0  0  0  0  0  0  0
    3.1028   -1.6738    1.1725 C   0  0  0  0  0  0  0  0  0  0  0  0
    6.5608   -1.4146   -0.4056 C   0  0  0  0  0  0  0  0  0  0  0  0
    7.4021   -0.5404    0.5380 C   0  0  0  0  0  0  0  0  0  0  0  0
    4.3203   -0.4038   -0.9996 C   0  0  0  0  0  0  0  0  0  0  0  0
    4.4664   -1.8606    0.9297 C   0  0  0  0  0  0  0  0  0  0  0  0
    8.8636   -0.8329    0.3701 C   0  0  0  0  0  0  0  0  0  0  0  0
    8.8926    1.4143   -0.2276 C   0  0  0  0  0  0  0  0  0  0  0  0
   -1.2746   -2.0534    1.1106 H   0  0  0  0  0  0  0  0  0  0  0  0
   -1.7627   -1.8137   -0.6003 H   0  0  0  0  0  0  0  0  0  0  0  0
   -3.7196   -2.4909    0.5158 H   0  0  0  0  0  0  0  0  0  0  0  0
   -3.4481   -1.4156    1.9271 H   0  0  0  0  0  0  0  0  0  0  0  0
    0.0484   -0.2613   -1.1893 H   0  0  0  0  0  0  0  0  0  0  0  0
    0.4288    1.1577   -0.1455 H   0  0  0  0  0  0  0  0  0  0  0  0
   -2.3580    0.6913    2.2998 H   0  0  0  0  0  0  0  0  0  0  0  0
   -0.8864    1.6287    1.8992 H   0  0  0  0  0  0  0  0  0  0  0  0
   -0.7322   -0.0411    2.5671 H   0  0  0  0  0  0  0  0  0  0  0  0
   -5.8192   -1.9067    1.8351 H   0  0  0  0  0  0  0  0  0  0  0  0
   -7.3675   -1.4612    1.0919 H   0  0  0  0  0  0  0  0  0  0  0  0
   -6.2528   -2.5670    0.2059 H   0  0  0  0  0  0  0  0  0  0  0  0
   -3.6312    2.7943   -2.7672 H   0  0  0  0  0  0  0  0  0  0  0  0
   -2.6261    3.0225   -1.2937 H   0  0  0  0  0  0  0  0  0  0  0  0
   -4.2045    3.8296   -1.3893 H   0  0  0  0  0  0  0  0  0  0  0  0
   -6.0210    3.1325   -2.6544 H   0  0  0  0  0  0  0  0  0  0  0  0
   -7.3335    1.9596   -2.5922 H   0  0  0  0  0  0  0  0  0  0  0  0
   -7.1583    3.1758   -1.2568 H   0  0  0  0  0  0  0  0  0  0  0  0
   -8.4203    1.0007   -0.8762 H   0  0  0  0  0  0  0  0  0  0  0  0
    2.3949    0.4254   -1.4202 H   0  0  0  0  0  0  0  0  0  0  0  0
    2.6383   -2.1670    2.0171 H   0  0  0  0  0  0  0  0  0  0  0  0
    6.8149   -2.4859   -0.2465 H   0  0  0  0  0  0  0  0  0  0  0  0
    6.8127   -1.1765   -1.4629 H   0  0  0  0  0  0  0  0  0  0  0  0
    7.1185   -0.7313    1.5956 H   0  0  0  0  0  0  0  0  0  0  0  0
    4.7810    0.0998   -1.8406 H   0  0  0  0  0  0  0  0  0  0  0  0
    5.0418   -2.4948    1.5929 H   0  0  0  0  0  0  0  0  0  0  0  0
   10.6971    0.1883   -0.2352 H   0  0  0  0  0  0  0  0  0  0  0  0
  1 27  1  0
  1 31  1  0
  2  8  1  0
  2 12  1  0
  3 13  1  0
  3 22  1  0
  4 18  1  0
  4 50  1  0
  5 30  2  0
  6 31  2  0
  7 30  1  0
  7 31  1  0
  7 58  1  0
  8  9  1  0
  8 13  1  0
  8 14  1  0
  9 10  1  0
  9 32  1  0
  9 33  1  0
 10 11  1  0
 10 34  1  0
 10 35  1  0
 11 12  2  0
 11 15  1  0
 12 16  1  0
 13 36  1  0
 13 37  1  0
 14 38  1  0
 14 39  1  0
 14 40  1  0
 15 18  2  0
 15 19  1  0
 16 17  2  0
 16 20  1  0
 17 18  1  0
 17 21  1  0
 19 41  1  0
 19 42  1  0
 19 43  1  0
 20 44  1  0
 20 45  1  0
 20 46  1  0
 21 47  1  0
 21 48  1  0
 21 49  1  0
 22 24  2  0
 22 25  1  0
 23 26  1  0
 23 28  2  0
 23 29  1  0
 24 28  1  0
 24 51  1  0
 25 29  2  0
 25 52  1  0
 26 27  1  0
 26 53  1  0
 26 54  1  0
 27 30  1  0
 27 55  1  0
 28 56  1  0
 29 57  1  0
M  END
>  <Name>  (19) 
Troglitazone

>  <activity>  (19) 
Positive

$$$$
Trovafloxacin
     RDKit          3D

 45 49  0  0  0  0  0  0  0  0999 V2000
    1.4940   -3.1702    1.9212 F   0  0  0  0  0  0  0  0  0  0  0  0
   -0.9774   -0.1590   -2.7276 F   0  0  0  0  0  0  0  0  0  0  0  0
   -0.7692    4.5579   -3.3667 F   0  0  0  0  0  0  0  0  0  0  0  0
   -3.5145   -3.0239    1.9418 O   0  0  0  0  0  0  0  0  0  0  0  0
   -6.0585   -1.7891    2.1648 O   0  0  0  0  0  0  0  0  0  0  0  0
   -6.3598   -1.0251    0.0335 O   0  0  0  0  0  0  0  0  0  0  0  0
    2.3069   -0.8758    0.3314 N   0  0  0  0  0  0  0  0  0  0  0  0
    4.0921    1.0402    1.8670 N   0  0  0  0  0  0  0  0  0  0  0  0
   -0.0530   -0.4304    0.0952 N   0  0  0  0  0  0  0  0  0  0  0  0
   -2.3213    0.1612   -0.2590 N   0  0  0  0  0  0  0  0  0  0  0  0
    4.6965   -0.8422    0.3095 C   0  0  0  0  0  0  0  0  0  0  0  0
    4.1857    0.3168   -0.5415 C   0  0  0  0  0  0  0  0  0  0  0  0
    4.9329    0.5972    0.7596 C   0  0  0  0  0  0  0  0  0  0  0  0
    3.4728   -1.5843    0.8387 C   0  0  0  0  0  0  0  0  0  0  0  0
    2.6621    0.2563   -0.5113 C   0  0  0  0  0  0  0  0  0  0  0  0
    0.9317   -1.2178    0.6078 C   0  0  0  0  0  0  0  0  0  0  0  0
    0.5691   -2.3376    1.3834 C   0  0  0  0  0  0  0  0  0  0  0  0
   -1.3796   -0.6691    0.2907 C   0  0  0  0  0  0  0  0  0  0  0  0
   -0.7817   -2.6084    1.6099 C   0  0  0  0  0  0  0  0  0  0  0  0
   -1.7747   -1.7746    1.0711 C   0  0  0  0  0  0  0  0  0  0  0  0
   -3.1437   -2.0113    1.2858 C   0  0  0  0  0  0  0  0  0  0  0  0
   -3.6525   -0.0534   -0.0406 C   0  0  0  0  0  0  0  0  0  0  0  0
   -4.0966   -1.1292    0.7434 C   0  0  0  0  0  0  0  0  0  0  0  0
   -1.9270    1.2876   -1.0662 C   0  0  0  0  0  0  0  0  0  0  0  0
   -1.2478    1.0942   -2.2833 C   0  0  0  0  0  0  0  0  0  0  0  0
   -2.2209    2.5937   -0.6417 C   0  0  0  0  0  0  0  0  0  0  0  0
   -5.5521   -1.3195    0.9542 C   0  0  0  0  0  0  0  0  0  0  0  0
   -0.8584    2.1955   -3.0525 C   0  0  0  0  0  0  0  0  0  0  0  0
   -1.8305    3.6910   -1.4150 C   0  0  0  0  0  0  0  0  0  0  0  0
   -1.1478    3.4925   -2.6185 C   0  0  0  0  0  0  0  0  0  0  0  0
    5.5407   -1.3920   -0.1585 H   0  0  0  0  0  0  0  0  0  0  0  0
    4.7349    0.4330   -1.5000 H   0  0  0  0  0  0  0  0  0  0  0  0
    5.9677    0.9931    0.6769 H   0  0  0  0  0  0  0  0  0  0  0  0
    3.4781   -1.5879    1.9495 H   0  0  0  0  0  0  0  0  0  0  0  0
    3.4813   -2.6244    0.4493 H   0  0  0  0  0  0  0  0  0  0  0  0
    2.2427    1.1989   -0.0986 H   0  0  0  0  0  0  0  0  0  0  0  0
    2.2743    0.0951   -1.5398 H   0  0  0  0  0  0  0  0  0  0  0  0
    4.0373    2.0824    1.8140 H   0  0  0  0  0  0  0  0  0  0  0  0
    4.6006    0.8107    2.7505 H   0  0  0  0  0  0  0  0  0  0  0  0
   -1.0468   -3.4699    2.2109 H   0  0  0  0  0  0  0  0  0  0  0  0
   -4.3821    0.6223   -0.4749 H   0  0  0  0  0  0  0  0  0  0  0  0
   -2.7432    2.7576    0.2925 H   0  0  0  0  0  0  0  0  0  0  0  0
   -0.3347    2.0432   -3.9875 H   0  0  0  0  0  0  0  0  0  0  0  0
   -2.0562    4.6950   -1.0794 H   0  0  0  0  0  0  0  0  0  0  0  0
   -5.4714   -1.9200    2.9790 H   0  0  0  0  0  0  0  0  0  0  0  0
  1 17  1  0
  2 25  1  0
  3 30  1  0
  4 21  2  0
  5 27  1  0
  5 45  1  0
  6 27  2  0
  7 14  1  0
  7 15  1  0
  7 16  1  0
  8 13  1  0
  8 38  1  0
  8 39  1  0
  9 16  2  0
  9 18  1  0
 10 18  1  0
 10 22  1  0
 10 24  1  0
 11 12  1  0
 11 13  1  0
 11 14  1  0
 11 31  1  0
 12 13  1  0
 12 15  1  0
 12 32  1  0
 13 33  1  0
 14 34  1  0
 14 35  1  0
 15 36  1  0
 15 37  1  0
 16 17  1  0
 17 19  2  0
 18 20  2  0
 19 20  1  0
 19 40  1  0
 20 21  1  0
 21 23  1  0
 22 23  2  0
 22 41  1  0
 23 27  1  0
 24 25  2  0
 24 26  1  0
 25 28  1  0
 26 29  2  0
 26 42  1  0
 28 30  2  0
 28 43  1  0
 29 30  1  0
 29 44  1  0
M  END
>  <Name>  (20) 
Trovafloxacin

>  <activity>  (20) 
Positive

$$$$
Valproic_acid
     RDKit          3D

 26 25  0  0  0  0  0  0  0  0999 V2000
   -0.3713   -2.3331   -0.6028 O   0  0  0  0  0  0  0  0  0  0  0  0
   -0.4052   -2.4545    1.6873 O   0  0  0  0  0  0  0  0  0  0  0  0
    0.0696   -0.2806    0.7913 C   0  0  0  0  0  0  0  0  0  0  0  0
   -0.9153    0.5880   -0.0229 C   0  0  0  0  0  0  0  0  0  0  0  0
    1.5487    0.0259    0.4567 C   0  0  0  0  0  0  0  0  0  0  0  0
   -2.3385    0.5386    0.5535 C   0  0  0  0  0  0  0  0  0  0  0  0
    1.9409   -0.1980   -1.0146 C   0  0  0  0  0  0  0  0  0  0  0  0
   -0.2400   -1.7507    0.6549 C   0  0  0  0  0  0  0  0  0  0  0  0
   -3.2884    1.4244   -0.2475 C   0  0  0  0  0  0  0  0  0  0  0  0
    3.4059    0.1599   -1.2491 C   0  0  0  0  0  0  0  0  0  0  0  0
   -0.0557   -0.0073    1.8640 H   0  0  0  0  0  0  0  0  0  0  0  0
   -0.9399    0.2500   -1.0819 H   0  0  0  0  0  0  0  0  0  0  0  0
   -0.5649    1.6438   -0.0086 H   0  0  0  0  0  0  0  0  0  0  0  0
    1.7564    1.0854    0.7254 H   0  0  0  0  0  0  0  0  0  0  0  0
    2.1974   -0.6050    1.1044 H   0  0  0  0  0  0  0  0  0  0  0  0
   -2.3286    0.8870    1.6093 H   0  0  0  0  0  0  0  0  0  0  0  0
   -2.7211   -0.5046    0.5310 H   0  0  0  0  0  0  0  0  0  0  0  0
    1.3180    0.4349   -1.6808 H   0  0  0  0  0  0  0  0  0  0  0  0
    1.7963   -1.2618   -1.2937 H   0  0  0  0  0  0  0  0  0  0  0  0
   -4.3072    1.3685    0.1906 H   0  0  0  0  0  0  0  0  0  0  0  0
   -3.3366    1.0824   -1.3033 H   0  0  0  0  0  0  0  0  0  0  0  0
   -2.9473    2.4812   -0.2191 H   0  0  0  0  0  0  0  0  0  0  0  0
    3.5855    1.2297   -1.0094 H   0  0  0  0  0  0  0  0  0  0  0  0
    3.6652   -0.0128   -2.3149 H   0  0  0  0  0  0  0  0  0  0  0  0
    4.0642   -0.4734   -0.6168 H   0  0  0  0  0  0  0  0  0  0  0  0
   -0.5878   -3.3178   -0.6996 H   0  0  0  0  0  0  0  0  0  0  0  0
  1  8  1  0
  1 26  1  0
  2  8  2  0
  3  4  1  0
  3  5  1  0
  3  8  1  0
  3 11  1  0
  4  6  1  0
  4 12  1  0
  4 13  1  0
  5  7  1  0
  5 14  1  0
  5 15  1  0
  6  9  1  0
  6 16  1  0
  6 17  1  0
  7 10  1  0
  7 18  1  0
  7 19  1  0
  9 20  1  0
  9 21  1  0
  9 22  1  0
 10 23  1  0
 10 24  1  0
 10 25  1  0
M  END
>  <Name>  (21) 
Valproic_acid

>  <activity>  (21) 
Positive

$$$$
Ximelagatran
     RDKit          3D

 69 71  0  0  0  0  0  0  0  0999 V2000
   -1.4013   -1.0113   -1.3498 O   0  0  0  0  0  0  0  0  0  0  0  0
    0.7932    1.2342   -0.8425 O   0  0  0  0  0  0  0  0  0  0  0  0
   -5.0978    3.7642   -0.9952 O   0  0  0  0  0  0  0  0  0  0  0  0
   -5.6893    2.0975   -2.4837 O   0  0  0  0  0  0  0  0  0  0  0  0
   11.0859    2.0579   -0.9873 O   0  0  0  0  0  0  0  0  0  0  0  0
   -0.7203   -0.3408    0.7660 N   0  0  0  0  0  0  0  0  0  0  0  0
   -3.7507    0.5650   -0.8850 N   0  0  0  0  0  0  0  0  0  0  0  0
    2.8927    0.4499   -0.2291 N   0  0  0  0  0  0  0  0  0  0  0  0
   10.2706   -0.5709   -0.8473 N   0  0  0  0  0  0  0  0  0  0  0  0
    9.7722    1.7448   -0.7231 N   0  0  0  0  0  0  0  0  0  0  0  0
   -4.0093   -1.6839    0.2634 C   0  0  0  0  0  0  0  0  0  0  0  0
   -3.1876   -0.3594    0.1209 C   0  0  0  0  0  0  0  0  0  0  0  0
   -3.8691   -2.6694   -0.9210 C   0  0  0  0  0  0  0  0  0  0  0  0
   -3.6718   -2.4069    1.5958 C   0  0  0  0  0  0  0  0  0  0  0  0
   -4.8742   -3.8343   -0.8033 C   0  0  0  0  0  0  0  0  0  0  0  0
   -4.0645   -3.9001    1.6079 C   0  0  0  0  0  0  0  0  0  0  0  0
    0.7491   -0.4592    0.8614 C   0  0  0  0  0  0  0  0  0  0  0  0
   -5.2254   -4.1978    0.6538 C   0  0  0  0  0  0  0  0  0  0  0  0
   -0.6358    0.1216    2.1645 C   0  0  0  0  0  0  0  0  0  0  0  0
    0.8493    0.0112    2.2812 C   0  0  0  0  0  0  0  0  0  0  0  0
   -1.7351   -0.6046   -0.2047 C   0  0  0  0  0  0  0  0  0  0  0  0
    1.4621    0.4515   -0.1147 C   0  0  0  0  0  0  0  0  0  0  0  0
   -4.8759    1.3544   -0.3651 C   0  0  0  0  0  0  0  0  0  0  0  0
   -5.2444    2.4196   -1.3479 C   0  0  0  0  0  0  0  0  0  0  0  0
    3.7464   -0.4744    0.5194 C   0  0  0  0  0  0  0  0  0  0  0  0
    5.2001   -0.2267    0.2130 C   0  0  0  0  0  0  0  0  0  0  0  0
    5.9514   -1.1678   -0.5062 C   0  0  0  0  0  0  0  0  0  0  0  0
    5.8146    0.9583    0.6423 C   0  0  0  0  0  0  0  0  0  0  0  0
   -5.4275    4.8299   -1.8799 C   0  0  0  0  0  0  0  0  0  0  0  0
    7.2998   -0.9295   -0.7886 C   0  0  0  0  0  0  0  0  0  0  0  0
    7.1620    1.1986    0.3597 C   0  0  0  0  0  0  0  0  0  0  0  0
    7.9239    0.2535   -0.3523 C   0  0  0  0  0  0  0  0  0  0  0  0
   -5.1454    6.1609   -1.2015 C   0  0  0  0  0  0  0  0  0  0  0  0
    9.3541    0.5166   -0.6526 C   0  0  0  0  0  0  0  0  0  0  0  0
   -5.0823   -1.4001    0.3209 H   0  0  0  0  0  0  0  0  0  0  0  0
   -3.2073    0.1413    1.1154 H   0  0  0  0  0  0  0  0  0  0  0  0
   -2.8414   -3.0936   -0.9283 H   0  0  0  0  0  0  0  0  0  0  0  0
   -4.0296   -2.1634   -1.8944 H   0  0  0  0  0  0  0  0  0  0  0  0
   -2.5827   -2.3427    1.8056 H   0  0  0  0  0  0  0  0  0  0  0  0
   -4.1965   -1.8846    2.4258 H   0  0  0  0  0  0  0  0  0  0  0  0
    1.0563   -1.5215    0.7361 H   0  0  0  0  0  0  0  0  0  0  0  0
   -4.4478   -4.7256   -1.3133 H   0  0  0  0  0  0  0  0  0  0  0  0
   -5.8123   -3.5667   -1.3370 H   0  0  0  0  0  0  0  0  0  0  0  0
   -4.3448   -4.2023    2.6402 H   0  0  0  0  0  0  0  0  0  0  0  0
   -3.1883   -4.5158    1.3062 H   0  0  0  0  0  0  0  0  0  0  0  0
   -6.1165   -3.6165    0.9785 H   0  0  0  0  0  0  0  0  0  0  0  0
   -5.4897   -5.2757    0.7139 H   0  0  0  0  0  0  0  0  0  0  0  0
   -1.1702   -0.5735    2.8489 H   0  0  0  0  0  0  0  0  0  0  0  0
   -0.9957    1.1704    2.2571 H   0  0  0  0  0  0  0  0  0  0  0  0
    1.1712   -0.7894    2.9820 H   0  0  0  0  0  0  0  0  0  0  0  0
    1.3454    0.9982    2.4164 H   0  0  0  0  0  0  0  0  0  0  0  0
   -4.0647    0.0402   -1.7325 H   0  0  0  0  0  0  0  0  0  0  0  0
   -5.7635    0.7106   -0.1875 H   0  0  0  0  0  0  0  0  0  0  0  0
   -4.5944    1.8457    0.5921 H   0  0  0  0  0  0  0  0  0  0  0  0
    3.3267    1.1250   -0.9001 H   0  0  0  0  0  0  0  0  0  0  0  0
    3.4674   -1.5178    0.2572 H   0  0  0  0  0  0  0  0  0  0  0  0
    3.5833   -0.3400    1.6098 H   0  0  0  0  0  0  0  0  0  0  0  0
    5.4929   -2.0839   -0.8576 H   0  0  0  0  0  0  0  0  0  0  0  0
    5.2481    1.6967    1.1966 H   0  0  0  0  0  0  0  0  0  0  0  0
   -4.8163    4.7527   -2.8053 H   0  0  0  0  0  0  0  0  0  0  0  0
   -6.5050    4.7753   -2.1481 H   0  0  0  0  0  0  0  0  0  0  0  0
    7.8416   -1.6633   -1.3703 H   0  0  0  0  0  0  0  0  0  0  0  0
    7.6110    2.1201    0.7092 H   0  0  0  0  0  0  0  0  0  0  0  0
   -5.7558    6.2532   -0.2783 H   0  0  0  0  0  0  0  0  0  0  0  0
   -4.0691    6.2307   -0.9361 H   0  0  0  0  0  0  0  0  0  0  0  0
   -5.4024    6.9942   -1.8890 H   0  0  0  0  0  0  0  0  0  0  0  0
    9.9963   -1.5544   -0.6326 H   0  0  0  0  0  0  0  0  0  0  0  0
   11.2579   -0.4030   -1.1418 H   0  0  0  0  0  0  0  0  0  0  0  0
   11.3756    3.0264   -1.0345 H   0  0  0  0  0  0  0  0  0  0  0  0
  1 21  2  0
  2 22  2  0
  3 24  1  0
  3 29  1  0
  4 24  2  0
  5 10  1  0
  5 69  1  0
  6 17  1  0
  6 19  1  0
  6 21  1  0
 12  7  1  0
  7 23  1  0
  7 52  1  0
  8 22  1  0
  8 25  1  0
  8 55  1  0
  9 34  1  0
  9 67  1  0
  9 68  1  0
 10 34  2  0
 11 12  1  0
 11 13  1  0
 11 14  1  0
 11 35  1  0
 12 21  1  0
 12 36  1  0
 13 15  1  0
 13 37  1  0
 13 38  1  0
 14 16  1  0
 14 39  1  0
 14 40  1  0
 15 18  1  0
 15 42  1  0
 15 43  1  0
 16 18  1  0
 16 44  1  0
 16 45  1  0
 17 20  1  0
 17 22  1  0
 17 41  1  0
 18 46  1  0
 18 47  1  0
 19 20  1  0
 19 48  1  0
 19 49  1  0
 20 50  1  0
 20 51  1  0
 23 24  1  0
 23 53  1  0
 23 54  1  0
 25 26  1  0
 25 56  1  0
 25 57  1  0
 26 27  2  0
 26 28  1  0
 27 30  1  0
 27 58  1  0
 28 31  2  0
 28 59  1  0
 29 33  1  0
 29 60  1  0
 29 61  1  0
 30 32  2  0
 30 62  1  0
 31 32  1  0
 31 63  1  0
 32 34  1  0
 33 64  1  0
 33 65  1  0
 33 66  1  0
M  END
>  <Name>  (22) 
Ximelagatran

>  <activity>  (22) 
Positive

$$$$
Zileuton
     RDKit          3D

 28 29  0  0  0  0  0  0  0  0999 V2000
    0.1717   -0.6823    1.5472 S   0  0  0  0  0  0  0  0  0  0  0  0
   -3.5173   -0.3630    0.8284 O   0  0  0  0  0  0  0  0  0  0  0  0
   -1.7262    2.0283   -1.1027 O   0  0  0  0  0  0  0  0  0  0  0  0
   -2.5794    0.1344   -0.0180 N   0  0  0  0  0  0  0  0  0  0  0  0
   -3.5092    2.4189    0.3310 N   0  0  0  0  0  0  0  0  0  0  0  0
   -1.6110   -0.7672   -0.6643 C   0  0  0  0  0  0  0  0  0  0  0  0
   -0.2393   -0.5403   -0.0912 C   0  0  0  0  0  0  0  0  0  0  0  0
    2.0194   -0.0093   -0.0150 C   0  0  0  0  0  0  0  0  0  0  0  0
    0.8874   -0.1605   -0.8223 C   0  0  0  0  0  0  0  0  0  0  0  0
    1.7825   -0.2652    1.3278 C   0  0  0  0  0  0  0  0  0  0  0  0
   -2.0095   -2.2404   -0.5108 C   0  0  0  0  0  0  0  0  0  0  0  0
    3.2959    0.3620   -0.4459 C   0  0  0  0  0  0  0  0  0  0  0  0
    2.7869   -0.1656    2.2876 C   0  0  0  0  0  0  0  0  0  0  0  0
    4.3261    0.4689    0.5040 C   0  0  0  0  0  0  0  0  0  0  0  0
    4.0726    0.2063    1.8647 C   0  0  0  0  0  0  0  0  0  0  0  0
   -2.5687    1.5465   -0.2978 C   0  0  0  0  0  0  0  0  0  0  0  0
   -1.5949   -0.5502   -1.7558 H   0  0  0  0  0  0  0  0  0  0  0  0
    0.8845    0.0016   -1.8928 H   0  0  0  0  0  0  0  0  0  0  0  0
   -2.0327   -2.5385    0.5594 H   0  0  0  0  0  0  0  0  0  0  0  0
   -1.2820   -2.8885   -1.0449 H   0  0  0  0  0  0  0  0  0  0  0  0
   -3.0146   -2.4080   -0.9530 H   0  0  0  0  0  0  0  0  0  0  0  0
    3.4922    0.5646   -1.4913 H   0  0  0  0  0  0  0  0  0  0  0  0
    2.5829   -0.3686    3.3309 H   0  0  0  0  0  0  0  0  0  0  0  0
    5.3208    0.7552    0.1880 H   0  0  0  0  0  0  0  0  0  0  0  0
    4.8731    0.2918    2.5880 H   0  0  0  0  0  0  0  0  0  0  0  0
   -3.0965   -0.3285    1.7256 H   0  0  0  0  0  0  0  0  0  0  0  0
   -4.2200    2.0555    1.0032 H   0  0  0  0  0  0  0  0  0  0  0  0
   -3.4948    3.4421    0.1233 H   0  0  0  0  0  0  0  0  0  0  0  0
  1  7  1  0
  1 10  1  0
  2  4  1  0
  2 26  1  0
  3 16  2  0
  4  6  1  0
  4 16  1  0
  5 16  1  0
  5 27  1  0
  5 28  1  0
  6  7  1  0
  6 11  1  0
  6 17  1  0
  7  9  2  0
  8  9  1  0
  8 10  2  0
  8 12  1  0
  9 18  1  0
 10 13  1  0
 11 19  1  0
 11 20  1  0
 11 21  1  0
 12 14  2  0
 12 22  1  0
 13 15  2  0
 13 23  1  0
 14 15  1  0
 14 24  1  0
 15 25  1  0
M  END
>  <Name>  (23) 
Zileuton

>  <activity>  (23) 
Positive

$$$$
Acetylcholine
     RDKit          3D

 26 25  0  0  0  0  0  0  0  0999 V2000
    1.8405   -0.3000    1.1589 O   0  0  0  0  0  0  0  0  0  0  0  0
    2.8511   -0.5355   -0.9104 O   0  0  0  0  0  0  0  0  0  0  0  0
   -1.5401    0.1198   -0.5103 N   0  0  0  0  0  0  0  0  0  0  0  0
   -0.1643    0.4329   -0.0156 C   0  0  0  0  0  0  0  0  0  0  0  0
   -2.0717    1.3324   -1.1794 C   0  0  0  0  0  0  0  0  0  0  0  0
   -1.5170   -0.9847   -1.4996 C   0  0  0  0  0  0  0  0  0  0  0  0
   -2.4495   -0.2312    0.6072 C   0  0  0  0  0  0  0  0  0  0  0  0
    0.5458   -0.7184    0.7299 C   0  0  0  0  0  0  0  0  0  0  0  0
    2.9395   -0.1902    0.2993 C   0  0  0  0  0  0  0  0  0  0  0  0
    4.2460    0.2862    0.8363 C   0  0  0  0  0  0  0  0  0  0  0  0
   -0.1991    1.3053    0.6769 H   0  0  0  0  0  0  0  0  0  0  0  0
    0.4810    0.7392   -0.8699 H   0  0  0  0  0  0  0  0  0  0  0  0
   -1.4280    1.6315   -2.0373 H   0  0  0  0  0  0  0  0  0  0  0  0
   -2.1213    2.1910   -0.4722 H   0  0  0  0  0  0  0  0  0  0  0  0
   -3.0990    1.1618   -1.5736 H   0  0  0  0  0  0  0  0  0  0  0  0
   -0.7721   -0.7869   -2.3024 H   0  0  0  0  0  0  0  0  0  0  0  0
   -2.5134   -1.1126   -1.9794 H   0  0  0  0  0  0  0  0  0  0  0  0
   -1.2689   -1.9571   -1.0232 H   0  0  0  0  0  0  0  0  0  0  0  0
   -3.5028   -0.3111    0.2557 H   0  0  0  0  0  0  0  0  0  0  0  0
   -2.1900   -1.2152    1.0531 H   0  0  0  0  0  0  0  0  0  0  0  0
   -2.4124    0.5392    1.4094 H   0  0  0  0  0  0  0  0  0  0  0  0
   -0.0283   -0.9940    1.6367 H   0  0  0  0  0  0  0  0  0  0  0  0
    0.6464   -1.6212    0.0928 H   0  0  0  0  0  0  0  0  0  0  0  0
    4.8733   -0.5870    1.1112 H   0  0  0  0  0  0  0  0  0  0  0  0
    4.0793    0.9135    1.7369 H   0  0  0  0  0  0  0  0  0  0  0  0
    4.7751    0.8921    0.0707 H   0  0  0  0  0  0  0  0  0  0  0  0
  1  8  1  0
  1  9  1  0
  2  9  2  0
  3  4  1  0
  3  5  1  0
  3  6  1  0
  3  7  1  0
  4  8  1  0
  4 11  1  0
  4 12  1  0
  5 13  1  0
  5 14  1  0
  5 15  1  0
  6 16  1  0
  6 17  1  0
  6 18  1  0
  7 19  1  0
  7 20  1  0
  7 21  1  0
  8 22  1  0
  8 23  1  0
  9 10  1  0
 10 24  1  0
 10 25  1  0
 10 26  1  0
M  CHG  1   3   1
M  END
>  <Name>  (24) 
Acetylcholine

>  <activity>  (24) 
Negative

$$$$
Beclomethasone
     RDKit          3D

 57 60  0  0  0  0  0  0  0  0999 V2000
   -1.8098   -1.6285   -1.1938 Cl  0  0  0  0  0  0  0  0  0  0  0  0
    2.8042   -0.8437   -2.2280 O   0  0  0  0  0  0  0  0  0  0  0  0
   -1.6412    1.1529   -2.5573 O   0  0  0  0  0  0  0  0  0  0  0  0
    4.3985    1.2813   -1.4487 O   0  0  0  0  0  0  0  0  0  0  0  0
    6.2278    0.9506    0.3793 O   0  0  0  0  0  0  0  0  0  0  0  0
   -6.5155   -1.6335    1.0527 O   0  0  0  0  0  0  0  0  0  0  0  0
    1.4915    0.4090   -0.5083 C   0  0  0  0  0  0  0  0  0  0  0  0
    0.8304   -0.4156    0.6302 C   0  0  0  0  0  0  0  0  0  0  0  0
   -0.7193   -0.2838    0.8752 C   0  0  0  0  0  0  0  0  0  0  0  0
   -1.6290   -0.0080   -0.3900 C   0  0  0  0  0  0  0  0  0  0  0  0
    2.8236   -0.4153   -0.8788 C   0  0  0  0  0  0  0  0  0  0  0  0
    1.2825   -1.8481    0.3835 C   0  0  0  0  0  0  0  0  0  0  0  0
    0.5257    0.4948   -1.7285 C   0  0  0  0  0  0  0  0  0  0  0  0
    2.7472   -1.6951    0.0162 C   0  0  0  0  0  0  0  0  0  0  0  0
   -0.8973    0.9586   -1.3774 C   0  0  0  0  0  0  0  0  0  0  0  0
   -3.0967    0.5425    0.0092 C   0  0  0  0  0  0  0  0  0  0  0  0
   -1.0269    0.6859    2.0370 C   0  0  0  0  0  0  0  0  0  0  0  0
    1.8007    1.8432    0.0101 C   0  0  0  0  0  0  0  0  0  0  0  0
   -2.4602    0.4884    2.5543 C   0  0  0  0  0  0  0  0  0  0  0  0
   -3.4208    0.1132    1.4488 C   0  0  0  0  0  0  0  0  0  0  0  0
    4.1355    0.3763   -0.6680 C   0  0  0  0  0  0  0  0  0  0  0  0
    3.3138   -2.9734   -0.6228 C   0  0  0  0  0  0  0  0  0  0  0  0
   -3.2367    2.0917   -0.0162 C   0  0  0  0  0  0  0  0  0  0  0  0
   -4.1470    0.0578   -0.9979 C   0  0  0  0  0  0  0  0  0  0  0  0
   -4.5290   -0.5747    1.7661 C   0  0  0  0  0  0  0  0  0  0  0  0
    5.1137    0.1005    0.4545 C   0  0  0  0  0  0  0  0  0  0  0  0
   -5.2323   -0.6380   -0.6581 C   0  0  0  0  0  0  0  0  0  0  0  0
   -5.4838   -0.9844    0.7374 C   0  0  0  0  0  0  0  0  0  0  0  0
    1.3416   -0.1344    1.5813 H   0  0  0  0  0  0  0  0  0  0  0  0
   -1.0326   -1.2734    1.2841 H   0  0  0  0  0  0  0  0  0  0  0  0
    1.1585   -2.4763    1.2935 H   0  0  0  0  0  0  0  0  0  0  0  0
    0.7217   -2.3042   -0.4583 H   0  0  0  0  0  0  0  0  0  0  0  0
    0.4461   -0.4942   -2.2269 H   0  0  0  0  0  0  0  0  0  0  0  0
    0.9449    1.2006   -2.4792 H   0  0  0  0  0  0  0  0  0  0  0  0
    3.2751   -1.5505    0.9807 H   0  0  0  0  0  0  0  0  0  0  0  0
   -0.8010    1.9527   -0.9043 H   0  0  0  0  0  0  0  0  0  0  0  0
   -0.8560    1.7332    1.7284 H   0  0  0  0  0  0  0  0  0  0  0  0
   -0.3407    0.4997    2.8921 H   0  0  0  0  0  0  0  0  0  0  0  0
    2.5361    1.8176    0.8420 H   0  0  0  0  0  0  0  0  0  0  0  0
    0.9026    2.3463    0.4114 H   0  0  0  0  0  0  0  0  0  0  0  0
    2.2036    2.4789   -0.8059 H   0  0  0  0  0  0  0  0  0  0  0  0
   -2.8121    1.4162    3.0539 H   0  0  0  0  0  0  0  0  0  0  0  0
   -2.4404   -0.3221    3.3174 H   0  0  0  0  0  0  0  0  0  0  0  0
    4.3686   -2.8100   -0.9283 H   0  0  0  0  0  0  0  0  0  0  0  0
    2.7222   -3.2756   -1.5133 H   0  0  0  0  0  0  0  0  0  0  0  0
    3.2871   -3.8053    0.1128 H   0  0  0  0  0  0  0  0  0  0  0  0
   -4.2387    2.3904    0.3645 H   0  0  0  0  0  0  0  0  0  0  0  0
   -3.1576    2.4995   -1.0456 H   0  0  0  0  0  0  0  0  0  0  0  0
   -2.4889    2.6081    0.6112 H   0  0  0  0  0  0  0  0  0  0  0  0
    2.8843   -0.0517   -2.8207 H   0  0  0  0  0  0  0  0  0  0  0  0
   -4.0182    0.3063   -2.0438 H   0  0  0  0  0  0  0  0  0  0  0  0
   -1.6127    0.3154   -3.0883 H   0  0  0  0  0  0  0  0  0  0  0  0
   -4.7288   -0.8466    2.7963 H   0  0  0  0  0  0  0  0  0  0  0  0
    4.6076    0.2303    1.4378 H   0  0  0  0  0  0  0  0  0  0  0  0
    5.4762   -0.9451    0.3755 H   0  0  0  0  0  0  0  0  0  0  0  0
   -5.9373   -0.9416   -1.4222 H   0  0  0  0  0  0  0  0  0  0  0  0
    5.9393    1.8310    0.7374 H   0  0  0  0  0  0  0  0  0  0  0  0
 10  1  1  0
 11  2  1  0
  2 50  1  0
 15  3  1  0
  3 52  1  0
  4 21  2  0
  5 26  1  0
  5 57  1  0
  6 28  2  0
  7  8  1  0
  7 11  1  0
  7 13  1  0
  7 18  1  0
  8  9  1  0
  8 12  1  0
  8 29  1  0
  9 10  1  0
  9 17  1  0
  9 30  1  0
 10 15  1  0
 10 16  1  0
 11 14  1  0
 11 21  1  0
 12 14  1  0
 12 31  1  0
 12 32  1  0
 13 15  1  0
 13 33  1  0
 13 34  1  0
 14 22  1  0
 14 35  1  0
 15 36  1  0
 16 20  1  0
 16 23  1  0
 16 24  1  0
 17 19  1  0
 17 37  1  0
 17 38  1  0
 18 39  1  0
 18 40  1  0
 18 41  1  0
 19 20  1  0
 19 42  1  0
 19 43  1  0
 20 25  2  0
 21 26  1  0
 22 44  1  0
 22 45  1  0
 22 46  1  0
 23 47  1  0
 23 48  1  0
 23 49  1  0
 24 27  2  0
 24 51  1  0
 25 28  1  0
 25 53  1  0
 26 54  1  0
 26 55  1  0
 27 28  1  0
 27 56  1  0
M  END
>  <Name>  (25) 
Beclomethasone

>  <activity>  (25) 
Negative

$$$$
Brompheniramine
     RDKit          3D

 38 39  0  0  0  0  0  0  0  0999 V2000
   -4.9639   -4.2654   -0.9334 Br  0  0  0  0  0  0  0  0  0  0  0  0
    2.7860    0.1691   -0.1651 N   0  0  0  0  0  0  0  0  0  0  0  0
   -0.4437    1.9098   -1.1492 N   0  0  0  0  0  0  0  0  0  0  0  0
   -0.1621   -0.3446   -0.1614 C   0  0  0  0  0  0  0  0  0  0  0  0
    0.7742   -0.7386    1.0077 C   0  0  0  0  0  0  0  0  0  0  0  0
    2.0288    0.1490    1.1064 C   0  0  0  0  0  0  0  0  0  0  0  0
   -1.3276   -1.3078   -0.3244 C   0  0  0  0  0  0  0  0  0  0  0  0
   -0.6517    1.0866   -0.0827 C   0  0  0  0  0  0  0  0  0  0  0  0
   -2.1621   -1.6540    0.7578 C   0  0  0  0  0  0  0  0  0  0  0  0
   -1.6031   -1.8578   -1.5914 C   0  0  0  0  0  0  0  0  0  0  0  0
   -1.3085    1.5924    1.0541 C   0  0  0  0  0  0  0  0  0  0  0  0
    3.5977    1.3930   -0.2555 C   0  0  0  0  0  0  0  0  0  0  0  0
    3.6597   -1.0112   -0.2818 C   0  0  0  0  0  0  0  0  0  0  0  0
   -3.2361   -2.5300    0.5746 C   0  0  0  0  0  0  0  0  0  0  0  0
   -2.6784   -2.7330   -1.7693 C   0  0  0  0  0  0  0  0  0  0  0  0
   -1.7338    2.9220    1.0674 C   0  0  0  0  0  0  0  0  0  0  0  0
   -3.4951   -3.0699   -0.6874 C   0  0  0  0  0  0  0  0  0  0  0  0
   -0.8509    3.2068   -1.1535 C   0  0  0  0  0  0  0  0  0  0  0  0
   -1.5059    3.7369   -0.0415 C   0  0  0  0  0  0  0  0  0  0  0  0
    0.4550   -0.4215   -1.0847 H   0  0  0  0  0  0  0  0  0  0  0  0
    0.2368   -0.6754    1.9766 H   0  0  0  0  0  0  0  0  0  0  0  0
    1.0804   -1.7992    0.8868 H   0  0  0  0  0  0  0  0  0  0  0  0
    2.6664   -0.2052    1.9482 H   0  0  0  0  0  0  0  0  0  0  0  0
    1.6911    1.1740    1.3811 H   0  0  0  0  0  0  0  0  0  0  0  0
   -1.9865   -1.2592    1.7475 H   0  0  0  0  0  0  0  0  0  0  0  0
   -0.9887   -1.6064   -2.4470 H   0  0  0  0  0  0  0  0  0  0  0  0
   -1.4802    0.9783    1.9257 H   0  0  0  0  0  0  0  0  0  0  0  0
    2.9378    2.2874   -0.2647 H   0  0  0  0  0  0  0  0  0  0  0  0
    4.3056    1.4703    0.6001 H   0  0  0  0  0  0  0  0  0  0  0  0
    4.1728    1.4066   -1.2065 H   0  0  0  0  0  0  0  0  0  0  0  0
    4.4053   -1.0475    0.5438 H   0  0  0  0  0  0  0  0  0  0  0  0
    3.0588   -1.9436   -0.2703 H   0  0  0  0  0  0  0  0  0  0  0  0
    4.2003   -0.9921   -1.2526 H   0  0  0  0  0  0  0  0  0  0  0  0
   -3.8665   -2.7889    1.4156 H   0  0  0  0  0  0  0  0  0  0  0  0
   -2.8768   -3.1471   -2.7495 H   0  0  0  0  0  0  0  0  0  0  0  0
   -2.2372    3.3213    1.9384 H   0  0  0  0  0  0  0  0  0  0  0  0
   -0.6655    3.8260   -2.0209 H   0  0  0  0  0  0  0  0  0  0  0  0
   -1.8319    4.7689   -0.0387 H   0  0  0  0  0  0  0  0  0  0  0  0
  1 17  1  0
  2  6  1  0
  2 12  1  0
  2 13  1  0
  3  8  2  0
  3 18  1  0
  4  5  1  0
  4  7  1  0
  4  8  1  0
  4 20  1  0
  5  6  1  0
  5 21  1  0
  5 22  1  0
  6 23  1  0
  6 24  1  0
  7  9  2  0
  7 10  1  0
  8 11  1  0
  9 14  1  0
  9 25  1  0
 10 15  2  0
 10 26  1  0
 11 16  2  0
 11 27  1  0
 12 28  1  0
 12 29  1  0
 12 30  1  0
 13 31  1  0
 13 32  1  0
 13 33  1  0
 14 17  2  0
 14 34  1  0
 15 17  1  0
 15 35  1  0
 16 19  1  0
 16 36  1  0
 18 19  2  0
 18 37  1  0
 19 38  1  0
M  END
>  <Name>  (26) 
Brompheniramine

>  <activity>  (26) 
Negative

$$$$
Ciclopirox
     RDKit          3D

 32 33  0  0  0  0  0  0  0  0999 V2000
    0.2308   -2.3561    0.3475 O   0  0  0  0  0  0  0  0  0  0  0  0
    2.8782   -2.8600    0.3870 O   0  0  0  0  0  0  0  0  0  0  0  0
    1.1710   -1.3531    0.1989 N   0  0  0  0  0  0  0  0  0  0  0  0
   -0.7200    0.3280    0.0147 C   0  0  0  0  0  0  0  0  0  0  0  0
   -1.4042    0.0317    1.3647 C   0  0  0  0  0  0  0  0  0  0  0  0
   -1.4756   -0.3090   -1.1825 C   0  0  0  0  0  0  0  0  0  0  0  0
   -2.8501    0.5675    1.3928 C   0  0  0  0  0  0  0  0  0  0  0  0
   -2.9657   -0.5678   -0.8888 C   0  0  0  0  0  0  0  0  0  0  0  0
   -3.5548    0.5162    0.0204 C   0  0  0  0  0  0  0  0  0  0  0  0
    0.7561   -0.0525    0.0295 C   0  0  0  0  0  0  0  0  0  0  0  0
    1.7149    0.9643   -0.1285 C   0  0  0  0  0  0  0  0  0  0  0  0
    3.0766    0.6528   -0.1260 C   0  0  0  0  0  0  0  0  0  0  0  0
    2.5051   -1.6670    0.2228 C   0  0  0  0  0  0  0  0  0  0  0  0
    3.4714   -0.6714    0.0677 C   0  0  0  0  0  0  0  0  0  0  0  0
    4.1034    1.7393   -0.2546 C   0  0  0  0  0  0  0  0  0  0  0  0
   -0.7986    1.4315   -0.1209 H   0  0  0  0  0  0  0  0  0  0  0  0
   -0.8269    0.4993    2.1923 H   0  0  0  0  0  0  0  0  0  0  0  0
   -1.4336   -1.0609    1.5544 H   0  0  0  0  0  0  0  0  0  0  0  0
   -1.0141   -1.2668   -1.5007 H   0  0  0  0  0  0  0  0  0  0  0  0
   -1.3958    0.3780   -2.0538 H   0  0  0  0  0  0  0  0  0  0  0  0
   -2.8446    1.6203    1.7505 H   0  0  0  0  0  0  0  0  0  0  0  0
   -3.4342   -0.0261    2.1297 H   0  0  0  0  0  0  0  0  0  0  0  0
   -3.0814   -1.5583   -0.3959 H   0  0  0  0  0  0  0  0  0  0  0  0
   -3.5313   -0.5998   -1.8450 H   0  0  0  0  0  0  0  0  0  0  0  0
   -3.4530    1.5018   -0.4854 H   0  0  0  0  0  0  0  0  0  0  0  0
   -4.6401    0.3272    0.1674 H   0  0  0  0  0  0  0  0  0  0  0  0
    1.4058    1.9954   -0.2535 H   0  0  0  0  0  0  0  0  0  0  0  0
    4.5237   -0.9301    0.0969 H   0  0  0  0  0  0  0  0  0  0  0  0
    4.3413    2.1432    0.7515 H   0  0  0  0  0  0  0  0  0  0  0  0
    3.7233    2.5632   -0.8956 H   0  0  0  0  0  0  0  0  0  0  0  0
    5.0344    1.3474   -0.7171 H   0  0  0  0  0  0  0  0  0  0  0  0
    0.4879   -3.3280    0.4738 H   0  0  0  0  0  0  0  0  0  0  0  0
  1  3  1  0
  1 32  1  0
  2 13  2  0
  3 10  1  0
  3 13  1  0
  4  5  1  0
  4  6  1  0
  4 10  1  0
  4 16  1  0
  5  7  1  0
  5 17  1  0
  5 18  1  0
  6  8  1  0
  6 19  1  0
  6 20  1  0
  7  9  1  0
  7 21  1  0
  7 22  1  0
  8  9  1  0
  8 23  1  0
  8 24  1  0
  9 25  1  0
  9 26  1  0
 10 11  2  0
 11 12  1  0
 11 27  1  0
 12 14  2  0
 12 15  1  0
 13 14  1  0
 14 28  1  0
 15 29  1  0
 15 30  1  0
 15 31  1  0
M  END
>  <Name>  (27) 
Ciclopirox

>  <activity>  (27) 
Negative

$$$$
Digoxin
     RDKit          3D

119126  0  0  0  0  0  0  0  0999 V2000
   -8.7401    0.4630    2.1608 O   0  0  0  0  0  0  0  0  0  0  0  0
   -8.6535    0.1724   -2.7069 O   0  0  0  0  0  0  0  0  0  0  0  0
   -0.1006   -0.8261    0.0483 O   0  0  0  0  0  0  0  0  0  0  0  0
  -13.1097    0.7300    1.6098 O   0  0  0  0  0  0  0  0  0  0  0  0
    1.4613    0.8935   -0.2800 O   0  0  0  0  0  0  0  0  0  0  0  0
  -14.6548    0.9865   -0.1261 O   0  0  0  0  0  0  0  0  0  0  0  0
    2.0591   -2.6546   -0.3731 O   0  0  0  0  0  0  0  0  0  0  0  0
    4.4088    0.0976   -0.2322 O   0  0  0  0  0  0  0  0  0  0  0  0
    6.2572   -0.8324   -1.2849 O   0  0  0  0  0  0  0  0  0  0  0  0
    8.8859   -0.0463    1.2459 O   0  0  0  0  0  0  0  0  0  0  0  0
    6.6674    1.9616    1.5699 O   0  0  0  0  0  0  0  0  0  0  0  0
   11.0671   -0.7123    1.3746 O   0  0  0  0  0  0  0  0  0  0  0  0
   12.5649    1.7282    1.9661 O   0  0  0  0  0  0  0  0  0  0  0  0
   12.5989    0.3436   -1.3833 O   0  0  0  0  0  0  0  0  0  0  0  0
   -8.1086   -0.1553    1.0564 C   0  0  0  0  0  0  0  0  0  0  0  0
   -6.5838    0.2585    1.0390 C   0  0  0  0  0  0  0  0  0  0  0  0
   -5.8172   -0.1876   -0.2451 C   0  0  0  0  0  0  0  0  0  0  0  0
   -8.8714    0.1818   -0.2679 C   0  0  0  0  0  0  0  0  0  0  0  0
   -4.2844    0.2355   -0.2243 C   0  0  0  0  0  0  0  0  0  0  0  0
   -3.6266   -0.0655    1.1941 C   0  0  0  0  0  0  0  0  0  0  0  0
   -8.0176   -0.2435   -1.5211 C   0  0  0  0  0  0  0  0  0  0  0  0
   -6.5874    0.3130   -1.4919 C   0  0  0  0  0  0  0  0  0  0  0  0
  -10.1256   -0.7548   -0.2189 C   0  0  0  0  0  0  0  0  0  0  0  0
   -8.3362   -1.6725    1.2227 C   0  0  0  0  0  0  0  0  0  0  0  0
   -5.8606   -0.1490    2.3560 C   0  0  0  0  0  0  0  0  0  0  0  0
   -4.5398   -0.8837    2.1231 C   0  0  0  0  0  0  0  0  0  0  0  0
   -9.7077   -1.9783    0.6221 C   0  0  0  0  0  0  0  0  0  0  0  0
   -3.5273   -0.5698   -1.3300 C   0  0  0  0  0  0  0  0  0  0  0  0
   -9.2424    1.6919   -0.3799 C   0  0  0  0  0  0  0  0  0  0  0  0
   -2.2494   -0.7722    1.1204 C   0  0  0  0  0  0  0  0  0  0  0  0
   -4.1369    1.7539   -0.5362 C   0  0  0  0  0  0  0  0  0  0  0  0
   -2.0040   -0.3291   -1.3584 C   0  0  0  0  0  0  0  0  0  0  0  0
   -1.3580   -0.1649    0.0331 C   0  0  0  0  0  0  0  0  0  0  0  0
  -11.4209   -0.1222    0.2814 C   0  0  0  0  0  0  0  0  0  0  0  0
  -11.7798    0.2387    1.7130 C   0  0  0  0  0  0  0  0  0  0  0  0
  -12.4470    0.1392   -0.5253 C   0  0  0  0  0  0  0  0  0  0  0  0
  -13.5017    0.6743    0.2895 C   0  0  0  0  0  0  0  0  0  0  0  0
    0.9133   -0.0326    0.6483 C   0  0  0  0  0  0  0  0  0  0  0  0
    1.9915   -0.9131    1.2943 C   0  0  0  0  0  0  0  0  0  0  0  0
    2.8227   -1.6487    0.2451 C   0  0  0  0  0  0  0  0  0  0  0  0
    2.2404    0.2989   -1.3156 C   0  0  0  0  0  0  0  0  0  0  0  0
    3.3520   -0.6625   -0.8079 C   0  0  0  0  0  0  0  0  0  0  0  0
    1.3785   -0.3024   -2.4375 C   0  0  0  0  0  0  0  0  0  0  0  0
    5.4406    0.3430   -1.1737 C   0  0  0  0  0  0  0  0  0  0  0  0
    6.1563    1.6741   -0.7952 C   0  0  0  0  0  0  0  0  0  0  0  0
    7.1961    1.5345    0.3385 C   0  0  0  0  0  0  0  0  0  0  0  0
    7.6222   -0.6567   -0.9324 C   0  0  0  0  0  0  0  0  0  0  0  0
    7.7134    0.0888    0.4366 C   0  0  0  0  0  0  0  0  0  0  0  0
    8.3740   -0.0276   -2.1360 C   0  0  0  0  0  0  0  0  0  0  0  0
   10.1453    0.0313    0.5988 C   0  0  0  0  0  0  0  0  0  0  0  0
   10.6300    1.4991    0.5294 C   0  0  0  0  0  0  0  0  0  0  0  0
   12.1708    1.6109    0.6217 C   0  0  0  0  0  0  0  0  0  0  0  0
   12.2745   -0.9340    0.6500 C   0  0  0  0  0  0  0  0  0  0  0  0
   12.8413    0.3718    0.0028 C   0  0  0  0  0  0  0  0  0  0  0  0
   13.2970   -1.5504    1.6089 C   0  0  0  0  0  0  0  0  0  0  0  0
   -6.5697    1.3691    1.0198 H   0  0  0  0  0  0  0  0  0  0  0  0
   -5.8402   -1.2974   -0.2861 H   0  0  0  0  0  0  0  0  0  0  0  0
   -3.4412    0.9014    1.7217 H   0  0  0  0  0  0  0  0  0  0  0  0
   -7.9304   -1.3573   -1.5381 H   0  0  0  0  0  0  0  0  0  0  0  0
   -6.6219    1.4215   -1.5200 H   0  0  0  0  0  0  0  0  0  0  0  0
   -6.0781   -0.0254   -2.4156 H   0  0  0  0  0  0  0  0  0  0  0  0
  -10.3451   -1.1251   -1.2494 H   0  0  0  0  0  0  0  0  0  0  0  0
   -8.3220   -1.9702    2.2939 H   0  0  0  0  0  0  0  0  0  0  0  0
   -7.5657   -2.2705    0.6959 H   0  0  0  0  0  0  0  0  0  0  0  0
   -5.6549    0.7667    2.9586 H   0  0  0  0  0  0  0  0  0  0  0  0
   -6.4950   -0.7874    3.0059 H   0  0  0  0  0  0  0  0  0  0  0  0
   -4.0418   -1.0370    3.1078 H   0  0  0  0  0  0  0  0  0  0  0  0
   -4.7390   -1.8918    1.6902 H   0  0  0  0  0  0  0  0  0  0  0  0
  -10.4329   -2.2168    1.4263 H   0  0  0  0  0  0  0  0  0  0  0  0
   -9.6383   -2.8785   -0.0267 H   0  0  0  0  0  0  0  0  0  0  0  0
   -3.6995   -1.6565   -1.1695 H   0  0  0  0  0  0  0  0  0  0  0  0
   -3.9148   -0.3320   -2.3388 H   0  0  0  0  0  0  0  0  0  0  0  0
   -9.8751    2.0365    0.4592 H   0  0  0  0  0  0  0  0  0  0  0  0
   -9.8086    1.8921   -1.3141 H   0  0  0  0  0  0  0  0  0  0  0  0
   -8.3354    2.3313   -0.3765 H   0  0  0  0  0  0  0  0  0  0  0  0
   -1.7343   -0.6797    2.1010 H   0  0  0  0  0  0  0  0  0  0  0  0
   -2.3828   -1.8589    0.9148 H   0  0  0  0  0  0  0  0  0  0  0  0
   -4.4070    1.9784   -1.5916 H   0  0  0  0  0  0  0  0  0  0  0  0
   -4.7721    2.3668    0.1332 H   0  0  0  0  0  0  0  0  0  0  0  0
   -3.0967    2.1048   -0.3958 H   0  0  0  0  0  0  0  0  0  0  0  0
   -1.5352   -1.1799   -1.9022 H   0  0  0  0  0  0  0  0  0  0  0  0
   -1.7921    0.5854   -1.9594 H   0  0  0  0  0  0  0  0  0  0  0  0
   -1.2667    0.9293    0.2286 H   0  0  0  0  0  0  0  0  0  0  0  0
   -8.4674    1.4183    2.2041 H   0  0  0  0  0  0  0  0  0  0  0  0
   -8.3054   -0.4012   -3.4402 H   0  0  0  0  0  0  0  0  0  0  0  0
  -11.7656   -0.6506    2.3823 H   0  0  0  0  0  0  0  0  0  0  0  0
  -11.1311    1.0386    2.1153 H   0  0  0  0  0  0  0  0  0  0  0  0
  -12.4822   -0.0370   -1.5915 H   0  0  0  0  0  0  0  0  0  0  0  0
    0.4981    0.5566    1.5013 H   0  0  0  0  0  0  0  0  0  0  0  0
    1.5130   -1.6464    1.9833 H   0  0  0  0  0  0  0  0  0  0  0  0
    2.6622   -0.2722    1.9066 H   0  0  0  0  0  0  0  0  0  0  0  0
    3.6992   -2.1185    0.7509 H   0  0  0  0  0  0  0  0  0  0  0  0
    2.7652    1.1453   -1.8089 H   0  0  0  0  0  0  0  0  0  0  0  0
    3.7100   -1.2917   -1.6632 H   0  0  0  0  0  0  0  0  0  0  0  0
    0.9280   -1.2701   -2.1422 H   0  0  0  0  0  0  0  0  0  0  0  0
    2.0050   -0.4857   -3.3349 H   0  0  0  0  0  0  0  0  0  0  0  0
    0.5750    0.4118   -2.7173 H   0  0  0  0  0  0  0  0  0  0  0  0
    1.9895   -3.4047    0.2794 H   0  0  0  0  0  0  0  0  0  0  0  0
    5.0130    0.5353   -2.1874 H   0  0  0  0  0  0  0  0  0  0  0  0
    6.6653    2.0689   -1.6997 H   0  0  0  0  0  0  0  0  0  0  0  0
    5.3944    2.4366   -0.5278 H   0  0  0  0  0  0  0  0  0  0  0  0
    8.0390    2.2118    0.0950 H   0  0  0  0  0  0  0  0  0  0  0  0
    8.0397   -1.6735   -0.7674 H   0  0  0  0  0  0  0  0  0  0  0  0
    6.9477   -0.4464    1.0474 H   0  0  0  0  0  0  0  0  0  0  0  0
    7.6821    0.1798   -2.9750 H   0  0  0  0  0  0  0  0  0  0  0  0
    9.1463   -0.7307   -2.5145 H   0  0  0  0  0  0  0  0  0  0  0  0
    8.8612    0.9296   -1.8687 H   0  0  0  0  0  0  0  0  0  0  0  0
    5.8434    1.4348    1.7449 H   0  0  0  0  0  0  0  0  0  0  0  0
   10.1164   -0.4164   -0.4096 H   0  0  0  0  0  0  0  0  0  0  0  0
   10.3020    1.9503   -0.4302 H   0  0  0  0  0  0  0  0  0  0  0  0
   10.1699    2.0922    1.3489 H   0  0  0  0  0  0  0  0  0  0  0  0
   12.5061    2.5157    0.0608 H   0  0  0  0  0  0  0  0  0  0  0  0
   12.0850   -1.6993   -0.1420 H   0  0  0  0  0  0  0  0  0  0  0  0
   13.9463    0.4415    0.1662 H   0  0  0  0  0  0  0  0  0  0  0  0
   12.8671   -2.4596    2.0845 H   0  0  0  0  0  0  0  0  0  0  0  0
   14.2159   -1.8471    1.0530 H   0  0  0  0  0  0  0  0  0  0  0  0
   13.5751   -0.8244    2.4058 H   0  0  0  0  0  0  0  0  0  0  0  0
   12.4174    2.6741    2.2297 H   0  0  0  0  0  0  0  0  0  0  0  0
   13.1722    1.0474   -1.7921 H   0  0  0  0  0  0  0  0  0  0  0  0
 15  1  1  0
  1 84  1  0
 21  2  1  0
  2 85  1  0
 33  3  1  0
 38  3  1  0
  4 35  1  0
  4 37  1  0
  5 38  1  0
  5 41  1  0
  6 37  2  0
 40  7  1  0
  7 98  1  0
 42  8  1  0
 44  8  1  0
  9 44  1  0
  9 47  1  0
 48 10  1  0
 50 10  1  0
 46 11  1  0
 11108  1  0
 12 50  1  0
 12 53  1  0
 52 13  1  0
 13118  1  0
 54 14  1  0
 14119  1  0
 15 16  1  0
 15 18  1  0
 15 24  1  0
 16 17  1  0
 16 25  1  0
 16 56  1  0
 17 19  1  0
 17 22  1  0
 17 57  1  0
 18 21  1  0
 18 23  1  0
 18 29  1  0
 19 20  1  0
 19 28  1  0
 19 31  1  0
 20 26  1  0
 20 30  1  0
 20 58  1  0
 21 22  1  0
 21 59  1  0
 22 60  1  0
 22 61  1  0
 23 27  1  0
 23 34  1  0
 23 62  1  0
 24 27  1  0
 24 63  1  0
 24 64  1  0
 25 26  1  0
 25 65  1  0
 25 66  1  0
 26 67  1  0
 26 68  1  0
 27 69  1  0
 27 70  1  0
 28 32  1  0
 28 71  1  0
 28 72  1  0
 29 73  1  0
 29 74  1  0
 29 75  1  0
 30 33  1  0
 30 76  1  0
 30 77  1  0
 31 78  1  0
 31 79  1  0
 31 80  1  0
 32 33  1  0
 32 81  1  0
 32 82  1  0
 33 83  1  0
 34 35  1  0
 34 36  2  0
 35 86  1  0
 35 87  1  0
 36 37  1  0
 36 88  1  0
 38 39  1  0
 38 89  1  0
 39 40  1  0
 39 90  1  0
 39 91  1  0
 40 42  1  0
 40 92  1  0
 41 42  1  0
 41 43  1  0
 41 93  1  0
 42 94  1  0
 43 95  1  0
 43 96  1  0
 43 97  1  0
 44 45  1  0
 44 99  1  0
 45 46  1  0
 45100  1  0
 45101  1  0
 46 48  1  0
 46102  1  0
 47 48  1  0
 47 49  1  0
 47103  1  0
 48104  1  0
 49105  1  0
 49106  1  0
 49107  1  0
 50 51  1  0
 50109  1  0
 51 52  1  0
 51110  1  0
 51111  1  0
 52 54  1  0
 52112  1  0
 53 54  1  0
 53 55  1  0
 53113  1  0
 54114  1  0
 55115  1  0
 55116  1  0
 55117  1  0
M  END
>  <Name>  (28) 
Digoxin

>  <activity>  (28) 
Negative

$$$$
Dopamine
     RDKit          3D

 22 22  0  0  0  0  0  0  0  0999 V2000
    3.3722    1.1543    0.7513 O   0  0  0  0  0  0  0  0  0  0  0  0
    3.6820   -1.6068    0.5990 O   0  0  0  0  0  0  0  0  0  0  0  0
   -3.6591    1.1075   -0.0309 N   0  0  0  0  0  0  0  0  0  0  0  0
   -1.3371    0.7700   -0.7430 C   0  0  0  0  0  0  0  0  0  0  0  0
   -0.0136    0.1441   -0.3843 C   0  0  0  0  0  0  0  0  0  0  0  0
   -2.4021    0.4489    0.3095 C   0  0  0  0  0  0  0  0  0  0  0  0
    1.0683    0.9447    0.0188 C   0  0  0  0  0  0  0  0  0  0  0  0
    0.1539   -1.2479   -0.4626 C   0  0  0  0  0  0  0  0  0  0  0  0
    2.3002    0.3603    0.3478 C   0  0  0  0  0  0  0  0  0  0  0  0
    1.3810   -1.8307   -0.1353 C   0  0  0  0  0  0  0  0  0  0  0  0
    2.4565   -1.0297    0.2711 C   0  0  0  0  0  0  0  0  0  0  0  0
   -1.6619    0.3933   -1.7374 H   0  0  0  0  0  0  0  0  0  0  0  0
   -1.2356    1.8748   -0.8230 H   0  0  0  0  0  0  0  0  0  0  0  0
   -2.0573    0.8145    1.3022 H   0  0  0  0  0  0  0  0  0  0  0  0
   -2.5612   -0.6509    0.3748 H   0  0  0  0  0  0  0  0  0  0  0  0
    0.9553    2.0200    0.0824 H   0  0  0  0  0  0  0  0  0  0  0  0
   -0.6653   -1.8810   -0.7805 H   0  0  0  0  0  0  0  0  0  0  0  0
    1.4956   -2.9053   -0.1992 H   0  0  0  0  0  0  0  0  0  0  0  0
   -4.0543    0.6389   -0.8787 H   0  0  0  0  0  0  0  0  0  0  0  0
   -4.3332    0.9282    0.7482 H   0  0  0  0  0  0  0  0  0  0  0  0
    3.2905    2.1622    0.8168 H   0  0  0  0  0  0  0  0  0  0  0  0
    3.8251   -2.6090    0.5529 H   0  0  0  0  0  0  0  0  0  0  0  0
  1  9  1  0
  1 21  1  0
  2 11  1  0
  2 22  1  0
  3  6  1  0
  3 19  1  0
  3 20  1  0
  4  5  1  0
  4  6  1  0
  4 12  1  0
  4 13  1  0
  5  7  2  0
  5  8  1  0
  6 14  1  0
  6 15  1  0
  7  9  1  0
  7 16  1  0
  8 10  2  0
  8 17  1  0
  9 11  2  0
 10 11  1  0
 10 18  1  0
M  END
>  <Name>  (29) 
Dopamine

>  <activity>  (29) 
Negative

$$$$
Econazole
     RDKit          3D

 39 41  0  0  0  0  0  0  0  0999 V2000
   -1.8339   -2.6324    3.2381 Cl  0  0  0  0  0  0  0  0  0  0  0  0
   -4.6235   -4.2635   -1.1261 Cl  0  0  0  0  0  0  0  0  0  0  0  0
    5.7118    2.4668   -3.1489 Cl  0  0  0  0  0  0  0  0  0  0  0  0
    0.5969   -0.2864    0.2771 O   0  0  0  0  0  0  0  0  0  0  0  0
   -1.6145    1.4048    0.8814 N   0  0  0  0  0  0  0  0  0  0  0  0
   -1.8624    2.8836   -0.7834 N   0  0  0  0  0  0  0  0  0  0  0  0
   -0.3242   -0.6785    1.2845 C   0  0  0  0  0  0  0  0  0  0  0  0
   -0.9865    0.5691    1.9046 C   0  0  0  0  0  0  0  0  0  0  0  0
   -1.3846   -1.5948    0.6907 C   0  0  0  0  0  0  0  0  0  0  0  0
    1.9056   -0.1513    0.7956 C   0  0  0  0  0  0  0  0  0  0  0  0
   -2.1153   -2.4952    1.5042 C   0  0  0  0  0  0  0  0  0  0  0  0
   -1.6849   -1.5343   -0.6867 C   0  0  0  0  0  0  0  0  0  0  0  0
    2.8252    0.4968   -0.2095 C   0  0  0  0  0  0  0  0  0  0  0  0
   -2.8947    1.3648    0.4784 C   0  0  0  0  0  0  0  0  0  0  0  0
   -1.0126    2.3249    0.1034 C   0  0  0  0  0  0  0  0  0  0  0  0
   -3.1027   -3.3104    0.9375 C   0  0  0  0  0  0  0  0  0  0  0  0
   -2.6733   -2.3514   -1.2387 C   0  0  0  0  0  0  0  0  0  0  0  0
   -3.3808   -3.2404   -0.4290 C   0  0  0  0  0  0  0  0  0  0  0  0
   -3.0434    2.2766   -0.5422 C   0  0  0  0  0  0  0  0  0  0  0  0
    2.3688    0.9519   -1.4631 C   0  0  0  0  0  0  0  0  0  0  0  0
    4.1803    0.6613    0.1223 C   0  0  0  0  0  0  0  0  0  0  0  0
    3.2556    1.5543   -2.3608 C   0  0  0  0  0  0  0  0  0  0  0  0
    5.0635    1.2637   -0.7786 C   0  0  0  0  0  0  0  0  0  0  0  0
    4.6024    1.7103   -2.0203 C   0  0  0  0  0  0  0  0  0  0  0  0
    0.1865   -1.2449    2.0994 H   0  0  0  0  0  0  0  0  0  0  0  0
   -1.7462    0.2649    2.6570 H   0  0  0  0  0  0  0  0  0  0  0  0
   -0.2240    1.1670    2.4477 H   0  0  0  0  0  0  0  0  0  0  0  0
    1.9117    0.4777    1.7143 H   0  0  0  0  0  0  0  0  0  0  0  0
    2.3112   -1.1583    1.0413 H   0  0  0  0  0  0  0  0  0  0  0  0
   -1.1685   -0.8414   -1.3388 H   0  0  0  0  0  0  0  0  0  0  0  0
   -3.6574    0.7123    0.8839 H   0  0  0  0  0  0  0  0  0  0  0  0
    0.0367    2.5826    0.1712 H   0  0  0  0  0  0  0  0  0  0  0  0
   -3.6582   -3.9985    1.5625 H   0  0  0  0  0  0  0  0  0  0  0  0
   -2.8916   -2.2883   -2.2972 H   0  0  0  0  0  0  0  0  0  0  0  0
   -3.9562    2.4821   -1.0847 H   0  0  0  0  0  0  0  0  0  0  0  0
    1.3314    0.8487   -1.7536 H   0  0  0  0  0  0  0  0  0  0  0  0
    4.5525    0.3221    1.0813 H   0  0  0  0  0  0  0  0  0  0  0  0
    2.8939    1.9005   -3.3207 H   0  0  0  0  0  0  0  0  0  0  0  0
    6.1053    1.3832   -0.5097 H   0  0  0  0  0  0  0  0  0  0  0  0
  1 11  1  0
  2 18  1  0
  3 24  1  0
  4  7  1  0
  4 10  1  0
  5  8  1  0
  5 14  1  0
  5 15  1  0
  6 15  2  0
  6 19  1  0
  7  8  1  0
  7  9  1  0
  7 25  1  0
  8 26  1  0
  8 27  1  0
  9 11  2  0
  9 12  1  0
 10 13  1  0
 10 28  1  0
 10 29  1  0
 11 16  1  0
 12 17  2  0
 12 30  1  0
 13 20  2  0
 13 21  1  0
 14 19  2  0
 14 31  1  0
 15 32  1  0
 16 18  2  0
 16 33  1  0
 17 18  1  0
 17 34  1  0
 19 35  1  0
 20 22  1  0
 20 36  1  0
 21 23  2  0
 21 37  1  0
 22 24  2  0
 22 38  1  0
 23 24  1  0
 23 39  1  0
M  END
>  <Name>  (30) 
Econazole

>  <activity>  (30) 
Negative

$$$$
Edrophonium
     RDKit          3D

 28 28  0  0  0  0  0  0  0  0999 V2000
    3.4457    1.9848    0.3181 O   0  0  0  0  0  0  0  0  0  0  0  0
   -0.8948   -0.2277   -0.7081 N   0  0  0  0  0  0  0  0  0  0  0  0
   -1.9770   -0.4626    0.3001 C   0  0  0  0  0  0  0  0  0  0  0  0
    0.4357   -0.1952   -0.0629 C   0  0  0  0  0  0  0  0  0  0  0  0
   -1.2118    1.0088   -1.4756 C   0  0  0  0  0  0  0  0  0  0  0  0
   -0.9121   -1.3483   -1.6834 C   0  0  0  0  0  0  0  0  0  0  0  0
   -2.0177    0.5689    1.4417 C   0  0  0  0  0  0  0  0  0  0  0  0
    1.3293    0.9051   -0.1871 C   0  0  0  0  0  0  0  0  0  0  0  0
    0.8753   -1.2965    0.7171 C   0  0  0  0  0  0  0  0  0  0  0  0
    2.5812    0.8993    0.4453 C   0  0  0  0  0  0  0  0  0  0  0  0
    2.1231   -1.2930    1.3429 C   0  0  0  0  0  0  0  0  0  0  0  0
    2.9724   -0.1987    1.2092 C   0  0  0  0  0  0  0  0  0  0  0  0
   -2.9757   -0.4632   -0.1941 H   0  0  0  0  0  0  0  0  0  0  0  0
   -1.8805   -1.4695    0.7614 H   0  0  0  0  0  0  0  0  0  0  0  0
   -1.1695    1.9151   -0.8357 H   0  0  0  0  0  0  0  0  0  0  0  0
   -0.5046    1.1492   -2.3241 H   0  0  0  0  0  0  0  0  0  0  0  0
   -2.2354    0.9636   -1.9115 H   0  0  0  0  0  0  0  0  0  0  0  0
   -1.8746   -1.3831   -2.2429 H   0  0  0  0  0  0  0  0  0  0  0  0
   -0.7963   -2.3356   -1.1863 H   0  0  0  0  0  0  0  0  0  0  0  0
   -0.0874   -1.2434   -2.4246 H   0  0  0  0  0  0  0  0  0  0  0  0
   -2.3163    1.5694    1.0694 H   0  0  0  0  0  0  0  0  0  0  0  0
   -1.0400    0.6405    1.9608 H   0  0  0  0  0  0  0  0  0  0  0  0
   -2.7761    0.2526    2.1885 H   0  0  0  0  0  0  0  0  0  0  0  0
    1.0850    1.7792   -0.7704 H   0  0  0  0  0  0  0  0  0  0  0  0
    0.2543   -2.1709    0.8488 H   0  0  0  0  0  0  0  0  0  0  0  0
    2.4324   -2.1452    1.9343 H   0  0  0  0  0  0  0  0  0  0  0  0
    3.9384   -0.2043    1.6979 H   0  0  0  0  0  0  0  0  0  0  0  0
    3.1971    2.8010   -0.2286 H   0  0  0  0  0  0  0  0  0  0  0  0
  1 10  1  0
  1 28  1  0
  2  3  1  0
  2  4  1  0
  2  5  1  0
  2  6  1  0
  3  7  1  0
  3 13  1  0
  3 14  1  0
  4  8  2  0
  4  9  1  0
  5 15  1  0
  5 16  1  0
  5 17  1  0
  6 18  1  0
  6 19  1  0
  6 20  1  0
  7 21  1  0
  7 22  1  0
  7 23  1  0
  8 10  1  0
  8 24  1  0
  9 11  2  0
  9 25  1  0
 10 12  2  0
 11 12  1  0
 11 26  1  0
 12 27  1  0
M  CHG  1   2   1
M  END
>  <Name>  (31) 
Edrophonium

>  <activity>  (31) 
Negative

$$$$
Isoproterenol
     RDKit          3D

 32 32  0  0  0  0  0  0  0  0999 V2000
   -0.5414    1.6761    0.4157 O   0  0  0  0  0  0  0  0  0  0  0  0
    4.5596   -0.4523    2.2977 O   0  0  0  0  0  0  0  0  0  0  0  0
    5.5628    0.1717   -0.3772 O   0  0  0  0  0  0  0  0  0  0  0  0
   -2.2153   -0.6939    0.4052 N   0  0  0  0  0  0  0  0  0  0  0  0
   -0.0443    0.4130    0.7740 C   0  0  0  0  0  0  0  0  0  0  0  0
   -0.7978   -0.6815    0.0051 C   0  0  0  0  0  0  0  0  0  0  0  0
   -3.0983   -0.0392   -0.5790 C   0  0  0  0  0  0  0  0  0  0  0  0
    1.4405    0.3426    0.4848 C   0  0  0  0  0  0  0  0  0  0  0  0
   -3.4723   -0.9931   -1.7261 C   0  0  0  0  0  0  0  0  0  0  0  0
   -4.3591    0.4517    0.1335 C   0  0  0  0  0  0  0  0  0  0  0  0
    2.3440   -0.0175    1.4973 C   0  0  0  0  0  0  0  0  0  0  0  0
    1.9335    0.6440   -0.7942 C   0  0  0  0  0  0  0  0  0  0  0  0
    3.7201   -0.0846    1.2441 C   0  0  0  0  0  0  0  0  0  0  0  0
    3.3030    0.5799   -1.0558 C   0  0  0  0  0  0  0  0  0  0  0  0
    4.2061    0.2176   -0.0503 C   0  0  0  0  0  0  0  0  0  0  0  0
   -0.2299    0.2423    1.8610 H   0  0  0  0  0  0  0  0  0  0  0  0
   -0.6734   -0.5403   -1.0917 H   0  0  0  0  0  0  0  0  0  0  0  0
   -0.3384   -1.6647    0.2563 H   0  0  0  0  0  0  0  0  0  0  0  0
   -2.5996    0.8563   -1.0139 H   0  0  0  0  0  0  0  0  0  0  0  0
   -2.5261   -1.6827    0.5587 H   0  0  0  0  0  0  0  0  0  0  0  0
   -4.0254   -1.8757   -1.3393 H   0  0  0  0  0  0  0  0  0  0  0  0
   -2.5616   -1.3471   -2.2519 H   0  0  0  0  0  0  0  0  0  0  0  0
   -4.1133   -0.4668   -2.4652 H   0  0  0  0  0  0  0  0  0  0  0  0
   -4.0817    1.1595    0.9436 H   0  0  0  0  0  0  0  0  0  0  0  0
   -4.9128   -0.4022    0.5800 H   0  0  0  0  0  0  0  0  0  0  0  0
   -5.0249    0.9814   -0.5809 H   0  0  0  0  0  0  0  0  0  0  0  0
    1.9810   -0.2517    2.4907 H   0  0  0  0  0  0  0  0  0  0  0  0
    1.2572    0.9330   -1.5891 H   0  0  0  0  0  0  0  0  0  0  0  0
   -0.2148    2.3166    1.1008 H   0  0  0  0  0  0  0  0  0  0  0  0
    3.6668    0.8151   -2.0481 H   0  0  0  0  0  0  0  0  0  0  0  0
    5.5633   -0.5295    2.2194 H   0  0  0  0  0  0  0  0  0  0  0  0
    6.2925   -0.0780    0.2745 H   0  0  0  0  0  0  0  0  0  0  0  0
  1  5  1  0
  1 29  1  0
  2 13  1  0
  2 31  1  0
  3 15  1  0
  3 32  1  0
  4  6  1  0
  4  7  1  0
  4 20  1  0
  5  6  1  0
  5  8  1  0
  5 16  1  0
  6 17  1  0
  6 18  1  0
  7  9  1  0
  7 10  1  0
  7 19  1  0
  8 11  2  0
  8 12  1  0
  9 21  1  0
  9 22  1  0
  9 23  1  0
 10 24  1  0
 10 25  1  0
 10 26  1  0
 11 13  1  0
 11 27  1  0
 12 14  2  0
 12 28  1  0
 13 15  2  0
 14 15  1  0
 14 30  1  0
M  END
>  <Name>  (32) 
Isoproterenol

>  <activity>  (32) 
Negative

$$$$
Lidocaine
     RDKit          3D

 39 39  0  0  0  0  0  0  0  0999 V2000
   -0.2363    1.2644    1.3532 O   0  0  0  0  0  0  0  0  0  0  0  0
    2.4592    0.4958    0.4406 N   0  0  0  0  0  0  0  0  0  0  0  0
   -0.9315    0.3362   -0.6801 N   0  0  0  0  0  0  0  0  0  0  0  0
    1.4354    1.2144   -0.3514 C   0  0  0  0  0  0  0  0  0  0  0  0
    3.8164    0.9540    0.0630 C   0  0  0  0  0  0  0  0  0  0  0  0
    2.2920   -0.9833    0.4219 C   0  0  0  0  0  0  0  0  0  0  0  0
   -2.2715    0.0755   -0.2342 C   0  0  0  0  0  0  0  0  0  0  0  0
    0.0499    0.9530    0.1651 C   0  0  0  0  0  0  0  0  0  0  0  0
   -3.1618    1.1423    0.0392 C   0  0  0  0  0  0  0  0  0  0  0  0
   -2.7162   -1.2592   -0.1003 C   0  0  0  0  0  0  0  0  0  0  0  0
    4.8880    0.4538    1.0325 C   0  0  0  0  0  0  0  0  0  0  0  0
    2.5038   -1.6418   -0.9486 C   0  0  0  0  0  0  0  0  0  0  0  0
   -4.4556    0.8595    0.5035 C   0  0  0  0  0  0  0  0  0  0  0  0
   -4.0236   -1.5135    0.3421 C   0  0  0  0  0  0  0  0  0  0  0  0
   -2.7501    2.5793   -0.1388 C   0  0  0  0  0  0  0  0  0  0  0  0
   -1.8008   -2.4104   -0.4186 C   0  0  0  0  0  0  0  0  0  0  0  0
   -4.8825   -0.4596    0.6508 C   0  0  0  0  0  0  0  0  0  0  0  0
    1.5128    0.9599   -1.4295 H   0  0  0  0  0  0  0  0  0  0  0  0
    1.5996    2.3115   -0.2725 H   0  0  0  0  0  0  0  0  0  0  0  0
    4.0716    0.6607   -0.9774 H   0  0  0  0  0  0  0  0  0  0  0  0
    3.8536    2.0655    0.1010 H   0  0  0  0  0  0  0  0  0  0  0  0
    1.2794   -1.2520    0.7881 H   0  0  0  0  0  0  0  0  0  0  0  0
    2.9819   -1.4502    1.1546 H   0  0  0  0  0  0  0  0  0  0  0  0
   -0.6246   -0.0752   -1.5899 H   0  0  0  0  0  0  0  0  0  0  0  0
    4.5620    0.6122    2.0824 H   0  0  0  0  0  0  0  0  0  0  0  0
    5.1001   -0.6223    0.8636 H   0  0  0  0  0  0  0  0  0  0  0  0
    5.8316    1.0147    0.8644 H   0  0  0  0  0  0  0  0  0  0  0  0
    3.5444   -1.5063   -1.3053 H   0  0  0  0  0  0  0  0  0  0  0  0
    2.3249   -2.7335   -0.8529 H   0  0  0  0  0  0  0  0  0  0  0  0
    1.7895   -1.2535   -1.7014 H   0  0  0  0  0  0  0  0  0  0  0  0
   -5.1418    1.6634    0.7402 H   0  0  0  0  0  0  0  0  0  0  0  0
   -4.3794   -2.5302    0.4553 H   0  0  0  0  0  0  0  0  0  0  0  0
   -2.0468    2.6886   -0.9908 H   0  0  0  0  0  0  0  0  0  0  0  0
   -3.6328    3.2184   -0.3548 H   0  0  0  0  0  0  0  0  0  0  0  0
   -2.2663    2.9472    0.7893 H   0  0  0  0  0  0  0  0  0  0  0  0
   -1.5522   -2.4030   -1.5005 H   0  0  0  0  0  0  0  0  0  0  0  0
   -0.8656   -2.3231    0.1722 H   0  0  0  0  0  0  0  0  0  0  0  0
   -2.2703   -3.3873   -0.1755 H   0  0  0  0  0  0  0  0  0  0  0  0
   -5.8862   -0.6660    0.9996 H   0  0  0  0  0  0  0  0  0  0  0  0
  1  8  2  0
  2  4  1  0
  2  5  1  0
  2  6  1  0
  3  7  1  0
  3  8  1  0
  3 24  1  0
  4  8  1  0
  4 18  1  0
  4 19  1  0
  5 11  1  0
  5 20  1  0
  5 21  1  0
  6 12  1  0
  6 22  1  0
  6 23  1  0
  7  9  2  0
  7 10  1  0
  9 13  1  0
  9 15  1  0
 10 14  2  0
 10 16  1  0
 11 25  1  0
 11 26  1  0
 11 27  1  0
 12 28  1  0
 12 29  1  0
 12 30  1  0
 13 17  2  0
 13 31  1  0
 14 17  1  0
 14 32  1  0
 15 33  1  0
 15 34  1  0
 15 35  1  0
 16 36  1  0
 16 37  1  0
 16 38  1  0
 17 39  1  0
M  END
>  <Name>  (33) 
Lidocaine

>  <activity>  (33) 
Negative

$$$$
Methoxamine
     RDKit          3D

 32 32  0  0  0  0  0  0  0  0999 V2000
   -2.3251    0.2954    1.4950 O   0  0  0  0  0  0  0  0  0  0  0  0
   -1.0933    1.8526   -0.3814 O   0  0  0  0  0  0  0  0  0  0  0  0
    3.4300   -1.2223    0.9517 O   0  0  0  0  0  0  0  0  0  0  0  0
   -3.3417   -2.1994    0.3099 N   0  0  0  0  0  0  0  0  0  0  0  0
   -1.4610   -0.7036    1.0030 C   0  0  0  0  0  0  0  0  0  0  0  0
   -2.0782   -1.5951   -0.1216 C   0  0  0  0  0  0  0  0  0  0  0  0
   -0.1003   -0.1340    0.6218 C   0  0  0  0  0  0  0  0  0  0  0  0
   -2.2809   -0.8802   -1.4661 C   0  0  0  0  0  0  0  0  0  0  0  0
    0.0478    1.1064   -0.0457 C   0  0  0  0  0  0  0  0  0  0  0  0
    1.0493   -0.8842    0.9345 C   0  0  0  0  0  0  0  0  0  0  0  0
    2.3280   -0.4241    0.6096 C   0  0  0  0  0  0  0  0  0  0  0  0
    1.3399    1.5652   -0.3681 C   0  0  0  0  0  0  0  0  0  0  0  0
    2.4667    0.8100   -0.0435 C   0  0  0  0  0  0  0  0  0  0  0  0
   -1.0782    3.0946   -1.0772 C   0  0  0  0  0  0  0  0  0  0  0  0
    4.7857   -0.8804    0.6820 C   0  0  0  0  0  0  0  0  0  0  0  0
   -1.2950   -1.3881    1.8644 H   0  0  0  0  0  0  0  0  0  0  0  0
   -1.3607   -2.4248   -0.3133 H   0  0  0  0  0  0  0  0  0  0  0  0
   -2.9867   -0.0295   -1.3781 H   0  0  0  0  0  0  0  0  0  0  0  0
   -2.7000   -1.5959   -2.2051 H   0  0  0  0  0  0  0  0  0  0  0  0
   -1.3126   -0.5172   -1.8679 H   0  0  0  0  0  0  0  0  0  0  0  0
    0.9537   -1.8416    1.4326 H   0  0  0  0  0  0  0  0  0  0  0  0
   -3.1728   -2.7563    1.1791 H   0  0  0  0  0  0  0  0  0  0  0  0
   -4.0311   -1.4492    0.5446 H   0  0  0  0  0  0  0  0  0  0  0  0
    1.4863    2.5088   -0.8753 H   0  0  0  0  0  0  0  0  0  0  0  0
   -2.8935    0.6296    0.7577 H   0  0  0  0  0  0  0  0  0  0  0  0
    3.4421    1.1948   -0.3084 H   0  0  0  0  0  0  0  0  0  0  0  0
   -2.1215    3.4463   -1.2112 H   0  0  0  0  0  0  0  0  0  0  0  0
   -0.5199    3.8545   -0.4907 H   0  0  0  0  0  0  0  0  0  0  0  0
   -0.6158    2.9655   -2.0785 H   0  0  0  0  0  0  0  0  0  0  0  0
    5.4452   -1.6887    1.0590 H   0  0  0  0  0  0  0  0  0  0  0  0
    4.9424   -0.7749   -0.4123 H   0  0  0  0  0  0  0  0  0  0  0  0
    5.0512    0.0656    1.1996 H   0  0  0  0  0  0  0  0  0  0  0  0
  1  5  1  0
  1 25  1  0
  2  9  1  0
  2 14  1  0
  3 11  1  0
  3 15  1  0
  4  6  1  0
  4 22  1  0
  4 23  1  0
  5  6  1  0
  5  7  1  0
  5 16  1  0
  6  8  1  0
  6 17  1  0
  7  9  2  0
  7 10  1  0
  8 18  1  0
  8 19  1  0
  8 20  1  0
  9 12  1  0
 10 11  2  0
 10 21  1  0
 11 13  1  0
 12 13  2  0
 12 24  1  0
 13 26  1  0
 14 27  1  0
 14 28  1  0
 14 29  1  0
 15 30  1  0
 15 31  1  0
 15 32  1  0
M  END
>  <Name>  (34) 
Methoxamine

>  <activity>  (34) 
Negative

$$$$
Methysergide
     RDKit          3D

 53 56  0  0  0  0  0  0  0  0999 V2000
    1.7567   -0.6472   -0.7784 O   0  0  0  0  0  0  0  0  0  0  0  0
    4.0119    2.0398    0.5181 O   0  0  0  0  0  0  0  0  0  0  0  0
    0.2253    1.1328    1.6669 N   0  0  0  0  0  0  0  0  0  0  0  0
   -5.1163    0.6199   -1.1292 N   0  0  0  0  0  0  0  0  0  0  0  0
    3.5624   -0.7035    0.7143 N   0  0  0  0  0  0  0  0  0  0  0  0
   -1.1683    0.6700    1.4202 C   0  0  0  0  0  0  0  0  0  0  0  0
   -1.2171   -0.7891    0.9019 C   0  0  0  0  0  0  0  0  0  0  0  0
   -1.9085    1.6548    0.4488 C   0  0  0  0  0  0  0  0  0  0  0  0
    1.1809   -1.1247    1.5096 C   0  0  0  0  0  0  0  0  0  0  0  0
    0.9873    0.1055    2.4007 C   0  0  0  0  0  0  0  0  0  0  0  0
   -3.1696    1.0442   -0.0857 C   0  0  0  0  0  0  0  0  0  0  0  0
   -2.4994   -1.2688    0.3141 C   0  0  0  0  0  0  0  0  0  0  0  0
   -3.3750   -0.2962   -0.1141 C   0  0  0  0  0  0  0  0  0  0  0  0
   -0.1392   -1.5897    0.9584 C   0  0  0  0  0  0  0  0  0  0  0  0
   -4.5497   -0.5461   -0.7482 C   0  0  0  0  0  0  0  0  0  0  0  0
   -4.2595    1.6057   -0.7439 C   0  0  0  0  0  0  0  0  0  0  0  0
    0.2491    2.3917    2.4362 C   0  0  0  0  0  0  0  0  0  0  0  0
    2.1640   -0.8238    0.4028 C   0  0  0  0  0  0  0  0  0  0  0  0
   -2.8938   -2.6133    0.1133 C   0  0  0  0  0  0  0  0  0  0  0  0
   -4.9677   -1.8588   -0.9798 C   0  0  0  0  0  0  0  0  0  0  0  0
   -4.1269   -2.9014   -0.5281 C   0  0  0  0  0  0  0  0  0  0  0  0
    4.5798   -0.1840   -0.2095 C   0  0  0  0  0  0  0  0  0  0  0  0
   -6.3298    0.7920   -1.9204 C   0  0  0  0  0  0  0  0  0  0  0  0
    4.7424   -1.1273   -1.4212 C   0  0  0  0  0  0  0  0  0  0  0  0
    4.2540    1.2626   -0.6227 C   0  0  0  0  0  0  0  0  0  0  0  0
    6.0371   -0.8746   -2.1943 C   0  0  0  0  0  0  0  0  0  0  0  0
   -1.7362    0.6691    2.3796 H   0  0  0  0  0  0  0  0  0  0  0  0
   -1.2488    1.9165   -0.4060 H   0  0  0  0  0  0  0  0  0  0  0  0
   -2.1829    2.5843    0.9899 H   0  0  0  0  0  0  0  0  0  0  0  0
    1.5938   -1.9472    2.1331 H   0  0  0  0  0  0  0  0  0  0  0  0
    1.9874    0.4919    2.7021 H   0  0  0  0  0  0  0  0  0  0  0  0
    0.4515   -0.1881    3.3333 H   0  0  0  0  0  0  0  0  0  0  0  0
   -0.1722   -2.5873    0.5409 H   0  0  0  0  0  0  0  0  0  0  0  0
   -4.4012    2.6588   -0.9508 H   0  0  0  0  0  0  0  0  0  0  0  0
    1.2954    2.6880    2.6672 H   0  0  0  0  0  0  0  0  0  0  0  0
   -0.3156    2.2952    3.3901 H   0  0  0  0  0  0  0  0  0  0  0  0
   -0.1730    3.2231    1.8366 H   0  0  0  0  0  0  0  0  0  0  0  0
   -2.2721   -3.4330    0.4454 H   0  0  0  0  0  0  0  0  0  0  0  0
   -5.8950   -2.0751   -1.4936 H   0  0  0  0  0  0  0  0  0  0  0  0
   -4.4212   -3.9310   -0.6845 H   0  0  0  0  0  0  0  0  0  0  0  0
    3.8715   -0.9484    1.6824 H   0  0  0  0  0  0  0  0  0  0  0  0
    5.5485   -0.1611    0.3394 H   0  0  0  0  0  0  0  0  0  0  0  0
   -6.6645    1.8507   -1.8893 H   0  0  0  0  0  0  0  0  0  0  0  0
   -6.1307    0.5049   -2.9741 H   0  0  0  0  0  0  0  0  0  0  0  0
   -7.1416    0.1542   -1.5118 H   0  0  0  0  0  0  0  0  0  0  0  0
    3.8845   -1.0238   -2.1187 H   0  0  0  0  0  0  0  0  0  0  0  0
    4.7594   -2.1786   -1.0593 H   0  0  0  0  0  0  0  0  0  0  0  0
    3.3637    1.2860   -1.2890 H   0  0  0  0  0  0  0  0  0  0  0  0
    5.1152    1.6947   -1.1775 H   0  0  0  0  0  0  0  0  0  0  0  0
    6.0222    0.1277   -2.6700 H   0  0  0  0  0  0  0  0  0  0  0  0
    6.9157   -0.9513   -1.5191 H   0  0  0  0  0  0  0  0  0  0  0  0
    6.1424   -1.6359   -2.9958 H   0  0  0  0  0  0  0  0  0  0  0  0
    3.7738    2.9457    0.1902 H   0  0  0  0  0  0  0  0  0  0  0  0
  1 18  2  0
  2 25  1  0
  2 53  1  0
  3  6  1  0
  3 10  1  0
  3 17  1  0
  4 15  1  0
  4 16  1  0
  4 23  1  0
  5 18  1  0
 22  5  1  0
  5 41  1  0
  6  7  1  0
  6  8  1  0
  6 27  1  0
  7 12  1  0
  7 14  2  0
  8 11  1  0
  8 28  1  0
  8 29  1  0
  9 10  1  0
  9 14  1  0
  9 18  1  0
  9 30  1  0
 10 31  1  0
 10 32  1  0
 11 13  1  0
 11 16  2  0
 12 13  2  0
 12 19  1  0
 13 15  1  0
 14 33  1  0
 15 20  2  0
 16 34  1  0
 17 35  1  0
 17 36  1  0
 17 37  1  0
 19 21  2  0
 19 38  1  0
 20 21  1  0
 20 39  1  0
 21 40  1  0
 22 24  1  0
 22 25  1  0
 22 42  1  0
 23 43  1  0
 23 44  1  0
 23 45  1  0
 24 26  1  0
 24 46  1  0
 24 47  1  0
 25 48  1  0
 25 49  1  0
 26 50  1  0
 26 51  1  0
 26 52  1  0
M  END
>  <Name>  (35) 
Methysergide

>  <activity>  (35) 
Negative

$$$$
Miconazole
     RDKit          3D

 39 41  0  0  0  0  0  0  0  0999 V2000
   -3.6354    0.9374    2.4672 Cl  0  0  0  0  0  0  0  0  0  0  0  0
   -2.3950    5.9202    0.7387 Cl  0  0  0  0  0  0  0  0  0  0  0  0
    1.6392    1.6938   -2.8000 Cl  0  0  0  0  0  0  0  0  0  0  0  0
    6.6442    0.1772   -1.3446 Cl  0  0  0  0  0  0  0  0  0  0  0  0
    0.3192   -0.3096    0.6627 O   0  0  0  0  0  0  0  0  0  0  0  0
   -1.8402   -2.3278    0.2797 N   0  0  0  0  0  0  0  0  0  0  0  0
   -1.7207   -4.3425    1.2575 N   0  0  0  0  0  0  0  0  0  0  0  0
   -1.0600   -0.0402    0.9203 C   0  0  0  0  0  0  0  0  0  0  0  0
   -2.0668   -0.8937    0.0907 C   0  0  0  0  0  0  0  0  0  0  0  0
   -1.3890    1.4542    0.8828 C   0  0  0  0  0  0  0  0  0  0  0  0
    0.6392   -0.4971   -0.7072 C   0  0  0  0  0  0  0  0  0  0  0  0
   -2.5592    1.9567    1.5127 C   0  0  0  0  0  0  0  0  0  0  0  0
   -0.5105    2.3826    0.2821 C   0  0  0  0  0  0  0  0  0  0  0  0
    2.1221   -0.2941   -0.8983 C   0  0  0  0  0  0  0  0  0  0  0  0
   -1.6824   -3.2512   -0.6830 C   0  0  0  0  0  0  0  0  0  0  0  0
   -1.8768   -3.0146    1.4392 C   0  0  0  0  0  0  0  0  0  0  0  0
   -2.8629    3.3225    1.4518 C   0  0  0  0  0  0  0  0  0  0  0  0
   -0.8252    3.7418    0.2303 C   0  0  0  0  0  0  0  0  0  0  0  0
   -2.0064    4.2108    0.8018 C   0  0  0  0  0  0  0  0  0  0  0  0
   -1.5955   -4.4843   -0.0780 C   0  0  0  0  0  0  0  0  0  0  0  0
    2.6556    0.6603   -1.7985 C   0  0  0  0  0  0  0  0  0  0  0  0
    3.0056   -1.1004   -0.1585 C   0  0  0  0  0  0  0  0  0  0  0  0
    4.0440    0.7975   -1.9253 C   0  0  0  0  0  0  0  0  0  0  0  0
    4.3876   -0.9543   -0.2943 C   0  0  0  0  0  0  0  0  0  0  0  0
    4.9077   -0.0046   -1.1752 C   0  0  0  0  0  0  0  0  0  0  0  0
   -1.2053   -0.3385    1.9796 H   0  0  0  0  0  0  0  0  0  0  0  0
   -2.0145   -0.6338   -0.9876 H   0  0  0  0  0  0  0  0  0  0  0  0
   -3.1086   -0.6718    0.3931 H   0  0  0  0  0  0  0  0  0  0  0  0
    0.0552    0.1746   -1.3679 H   0  0  0  0  0  0  0  0  0  0  0  0
    0.4133   -1.5411   -1.0030 H   0  0  0  0  0  0  0  0  0  0  0  0
    0.4349    2.0785   -0.1354 H   0  0  0  0  0  0  0  0  0  0  0  0
   -1.6426   -3.0465   -1.7452 H   0  0  0  0  0  0  0  0  0  0  0  0
   -2.0330   -2.5614    2.4094 H   0  0  0  0  0  0  0  0  0  0  0  0
   -3.7603    3.6975    1.9282 H   0  0  0  0  0  0  0  0  0  0  0  0
   -0.1416    4.4323   -0.2475 H   0  0  0  0  0  0  0  0  0  0  0  0
   -1.4630   -5.4329   -0.5805 H   0  0  0  0  0  0  0  0  0  0  0  0
    2.6208   -1.8446    0.5285 H   0  0  0  0  0  0  0  0  0  0  0  0
    4.4533    1.5279   -2.6122 H   0  0  0  0  0  0  0  0  0  0  0  0
    5.0530   -1.5810    0.2857 H   0  0  0  0  0  0  0  0  0  0  0  0
  1 12  1  0
  2 19  1  0
  3 21  1  0
  4 25  1  0
  5  8  1  0
  5 11  1  0
  6  9  1  0
  6 15  1  0
  6 16  1  0
  7 16  2  0
  7 20  1  0
  8  9  1  0
  8 10  1  0
  8 26  1  0
  9 27  1  0
  9 28  1  0
 10 12  2  0
 10 13  1  0
 11 14  1  0
 11 29  1  0
 11 30  1  0
 12 17  1  0
 13 18  2  0
 13 31  1  0
 14 21  2  0
 14 22  1  0
 15 20  2  0
 15 32  1  0
 16 33  1  0
 17 19  2  0
 17 34  1  0
 18 19  1  0
 18 35  1  0
 20 36  1  0
 21 23  1  0
 22 24  2  0
 22 37  1  0
 23 25  2  0
 23 38  1  0
 24 25  1  0
 24 39  1  0
M  END
>  <Name>  (36) 
Miconazole

>  <activity>  (36) 
Negative

$$$$
Orphenadrine
     RDKit          3D

 43 44  0  0  0  0  0  0  0  0999 V2000
    0.4738    0.8528    0.1359 O   0  0  0  0  0  0  0  0  0  0  0  0
    4.1877    0.4182    0.0265 N   0  0  0  0  0  0  0  0  0  0  0  0
   -0.6387    0.3465   -0.5850 C   0  0  0  0  0  0  0  0  0  0  0  0
   -0.9535   -1.0795   -0.1405 C   0  0  0  0  0  0  0  0  0  0  0  0
   -1.8532    1.2417   -0.4169 C   0  0  0  0  0  0  0  0  0  0  0  0
    1.6904    0.4096   -0.4320 C   0  0  0  0  0  0  0  0  0  0  0  0
   -1.2733   -1.4232    1.2044 C   0  0  0  0  0  0  0  0  0  0  0  0
    2.8447    0.8357    0.4896 C   0  0  0  0  0  0  0  0  0  0  0  0
   -0.9125   -2.0998   -1.1110 C   0  0  0  0  0  0  0  0  0  0  0  0
   -3.0418    0.9257   -1.1022 C   0  0  0  0  0  0  0  0  0  0  0  0
   -1.8200    2.4038    0.3821 C   0  0  0  0  0  0  0  0  0  0  0  0
   -1.5589   -2.7638    1.5218 C   0  0  0  0  0  0  0  0  0  0  0  0
   -1.3740   -0.3933    2.3009 C   0  0  0  0  0  0  0  0  0  0  0  0
   -1.1875   -3.4241   -0.7707 C   0  0  0  0  0  0  0  0  0  0  0  0
   -1.5114   -3.7551    0.5421 C   0  0  0  0  0  0  0  0  0  0  0  0
   -4.1735    1.7358   -0.9741 C   0  0  0  0  0  0  0  0  0  0  0  0
   -2.9557    3.2098    0.5065 C   0  0  0  0  0  0  0  0  0  0  0  0
    4.5658    1.0220   -1.2607 C   0  0  0  0  0  0  0  0  0  0  0  0
    4.3592   -1.0429    0.0005 C   0  0  0  0  0  0  0  0  0  0  0  0
   -4.1312    2.8756   -0.1689 C   0  0  0  0  0  0  0  0  0  0  0  0
   -0.4268    0.3678   -1.6818 H   0  0  0  0  0  0  0  0  0  0  0  0
    1.6934   -0.6974   -0.5331 H   0  0  0  0  0  0  0  0  0  0  0  0
    1.8235    0.8777   -1.4313 H   0  0  0  0  0  0  0  0  0  0  0  0
    2.8251    1.9422    0.6007 H   0  0  0  0  0  0  0  0  0  0  0  0
    2.6635    0.4214    1.5059 H   0  0  0  0  0  0  0  0  0  0  0  0
   -0.6661   -1.8717   -2.1406 H   0  0  0  0  0  0  0  0  0  0  0  0
   -3.0913    0.0484   -1.7355 H   0  0  0  0  0  0  0  0  0  0  0  0
   -0.9248    2.6897    0.9183 H   0  0  0  0  0  0  0  0  0  0  0  0
   -1.8217   -3.0465    2.5338 H   0  0  0  0  0  0  0  0  0  0  0  0
   -1.4384   -0.8715    3.3014 H   0  0  0  0  0  0  0  0  0  0  0  0
   -2.2892    0.2169    2.1589 H   0  0  0  0  0  0  0  0  0  0  0  0
   -0.4810    0.2614    2.3174 H   0  0  0  0  0  0  0  0  0  0  0  0
   -1.1520   -4.1957   -1.5290 H   0  0  0  0  0  0  0  0  0  0  0  0
   -1.7297   -4.7830    0.8019 H   0  0  0  0  0  0  0  0  0  0  0  0
   -5.0835    1.4803   -1.5014 H   0  0  0  0  0  0  0  0  0  0  0  0
   -2.9238    4.0958    1.1273 H   0  0  0  0  0  0  0  0  0  0  0  0
    4.0125    0.5607   -2.1072 H   0  0  0  0  0  0  0  0  0  0  0  0
    5.6536    0.8781   -1.4333 H   0  0  0  0  0  0  0  0  0  0  0  0
    4.3730    2.1163   -1.2496 H   0  0  0  0  0  0  0  0  0  0  0  0
    3.8158   -1.5045   -0.8522 H   0  0  0  0  0  0  0  0  0  0  0  0
    5.4380   -1.2881   -0.0988 H   0  0  0  0  0  0  0  0  0  0  0  0
    4.0021   -1.4954    0.9506 H   0  0  0  0  0  0  0  0  0  0  0  0
   -5.0086    3.5018   -0.0708 H   0  0  0  0  0  0  0  0  0  0  0  0
  1  3  1  0
  1  6  1  0
  2  8  1  0
  2 18  1  0
  2 19  1  0
  3  4  1  0
  3  5  1  0
  3 21  1  0
  4  7  2  0
  4  9  1  0
  5 10  2  0
  5 11  1  0
  6  8  1  0
  6 22  1  0
  6 23  1  0
  7 12  1  0
  7 13  1  0
  8 24  1  0
  8 25  1  0
  9 14  2  0
  9 26  1  0
 10 16  1  0
 10 27  1  0
 11 17  2  0
 11 28  1  0
 12 15  2  0
 12 29  1  0
 13 30  1  0
 13 31  1  0
 13 32  1  0
 14 15  1  0
 14 33  1  0
 15 34  1  0
 16 20  2  0
 16 35  1  0
 17 20  1  0
 17 36  1  0
 18 37  1  0
 18 38  1  0
 18 39  1  0
 19 40  1  0
 19 41  1  0
 19 42  1  0
 20 43  1  0
M  END
>  <Name>  (37) 
Orphenadrine

>  <activity>  (37) 
Negative

$$$$
Pilocarpine
     RDKit          3D

 31 32  0  0  0  0  0  0  0  0999 V2000
   -2.4512   -1.7566   -0.3397 O   0  0  0  0  0  0  0  0  0  0  0  0
   -3.8871   -0.4336   -1.5798 O   0  0  0  0  0  0  0  0  0  0  0  0
    2.6063   -0.1907    0.7567 N   0  0  0  0  0  0  0  0  0  0  0  0
    3.4228   -2.2821    0.7655 N   0  0  0  0  0  0  0  0  0  0  0  0
   -0.5388   -0.3538   -0.2692 C   0  0  0  0  0  0  0  0  0  0  0  0
   -1.6370    0.3439   -1.1160 C   0  0  0  0  0  0  0  0  0  0  0  0
    0.8070   -0.4126   -1.0200 C   0  0  0  0  0  0  0  0  0  0  0  0
   -1.0962   -1.7611    0.0704 C   0  0  0  0  0  0  0  0  0  0  0  0
   -2.0022    1.7619   -0.6169 C   0  0  0  0  0  0  0  0  0  0  0  0
   -2.7646   -0.6141   -1.0384 C   0  0  0  0  0  0  0  0  0  0  0  0
    1.9096   -0.9223   -0.1338 C   0  0  0  0  0  0  0  0  0  0  0  0
   -2.7251    1.8040    0.7357 C   0  0  0  0  0  0  0  0  0  0  0  0
    2.4097   -2.2064   -0.1216 C   0  0  0  0  0  0  0  0  0  0  0  0
    3.5193   -1.0354    1.2752 C   0  0  0  0  0  0  0  0  0  0  0  0
    2.5320    1.2484    0.9932 C   0  0  0  0  0  0  0  0  0  0  0  0
   -0.3838    0.1917    0.6849 H   0  0  0  0  0  0  0  0  0  0  0  0
   -1.3283    0.4158   -2.1829 H   0  0  0  0  0  0  0  0  0  0  0  0
    1.0807    0.6013   -1.3834 H   0  0  0  0  0  0  0  0  0  0  0  0
    0.7122   -1.0671   -1.9144 H   0  0  0  0  0  0  0  0  0  0  0  0
   -1.0342   -1.9610    1.1615 H   0  0  0  0  0  0  0  0  0  0  0  0
   -0.5612   -2.5659   -0.4779 H   0  0  0  0  0  0  0  0  0  0  0  0
   -2.6561    2.2472   -1.3738 H   0  0  0  0  0  0  0  0  0  0  0  0
   -1.0738    2.3696   -0.5486 H   0  0  0  0  0  0  0  0  0  0  0  0
   -2.1158    1.3425    1.5384 H   0  0  0  0  0  0  0  0  0  0  0  0
   -3.7036    1.2836    0.6753 H   0  0  0  0  0  0  0  0  0  0  0  0
   -2.9162    2.8617    1.0142 H   0  0  0  0  0  0  0  0  0  0  0  0
    2.0676   -3.0348   -0.7277 H   0  0  0  0  0  0  0  0  0  0  0  0
    4.2648   -0.7464    2.0050 H   0  0  0  0  0  0  0  0  0  0  0  0
    3.0035    1.5030    1.9662 H   0  0  0  0  0  0  0  0  0  0  0  0
    1.4754    1.5837    1.0208 H   0  0  0  0  0  0  0  0  0  0  0  0
    3.0645    1.7857    0.1809 H   0  0  0  0  0  0  0  0  0  0  0  0
  1  8  1  0
  1 10  1  0
  2 10  2  0
  3 11  1  0
  3 14  1  0
  3 15  1  0
  4 13  1  0
  4 14  2  0
  5  6  1  0
  5  7  1  0
  5  8  1  0
  5 16  1  0
  6  9  1  0
  6 10  1  0
  6 17  1  0
  7 11  1  0
  7 18  1  0
  7 19  1  0
  8 20  1  0
  8 21  1  0
  9 12  1  0
  9 22  1  0
  9 23  1  0
 11 13  2  0
 12 24  1  0
 12 25  1  0
 12 26  1  0
 13 27  1  0
 14 28  1  0
 15 29  1  0
 15 30  1  0
 15 31  1  0
M  END
>  <Name>  (38) 
Pilocarpine

>  <activity>  (38) 
Negative

$$$$
Pinacidil
     RDKit          3D

 37 37  0  0  0  0  0  0  0  0999 V2000
    0.0710   -0.1209    0.3149 N   0  0  0  0  0  0  0  0  0  0  0  0
    1.8572    1.4281    0.3127 N   0  0  0  0  0  0  0  0  0  0  0  0
   -0.3500    2.0503    1.2556 N   0  0  0  0  0  0  0  0  0  0  0  0
    4.9639   -1.3106   -0.4499 N   0  0  0  0  0  0  0  0  0  0  0  0
    0.6303    4.0761    2.4748 N   0  0  0  0  0  0  0  0  0  0  0  0
   -2.1844   -0.5890   -0.7436 C   0  0  0  0  0  0  0  0  0  0  0  0
   -1.2299   -0.7898    0.4882 C   0  0  0  0  0  0  0  0  0  0  0  0
   -2.5878    0.8846   -0.9568 C   0  0  0  0  0  0  0  0  0  0  0  0
   -1.4689   -1.0829   -2.0226 C   0  0  0  0  0  0  0  0  0  0  0  0
   -3.4683   -1.4302   -0.5615 C   0  0  0  0  0  0  0  0  0  0  0  0
   -1.8547   -0.5580    1.8804 C   0  0  0  0  0  0  0  0  0  0  0  0
    0.4995    1.0725    0.6324 C   0  0  0  0  0  0  0  0  0  0  0  0
    2.9005    0.4737    0.0481 C   0  0  0  0  0  0  0  0  0  0  0  0
    3.9179    0.7970   -0.8600 C   0  0  0  0  0  0  0  0  0  0  0  0
    2.9578   -0.7575    0.7233 C   0  0  0  0  0  0  0  0  0  0  0  0
    0.1872    3.1602    1.9235 C   0  0  0  0  0  0  0  0  0  0  0  0
    4.9442   -0.1190   -1.1034 C   0  0  0  0  0  0  0  0  0  0  0  0
    4.0024   -1.6444    0.4510 C   0  0  0  0  0  0  0  0  0  0  0  0
   -0.9811   -1.8750    0.4896 H   0  0  0  0  0  0  0  0  0  0  0  0
   -3.1654    1.2754   -0.0946 H   0  0  0  0  0  0  0  0  0  0  0  0
   -1.6953    1.5218   -1.1265 H   0  0  0  0  0  0  0  0  0  0  0  0
   -3.2372    0.9813   -1.8539 H   0  0  0  0  0  0  0  0  0  0  0  0
   -2.1360   -0.9981   -2.9080 H   0  0  0  0  0  0  0  0  0  0  0  0
   -1.1680   -2.1480   -1.9201 H   0  0  0  0  0  0  0  0  0  0  0  0
   -0.5573   -0.4809   -2.2260 H   0  0  0  0  0  0  0  0  0  0  0  0
   -3.2167   -2.4985   -0.3863 H   0  0  0  0  0  0  0  0  0  0  0  0
   -4.0668   -1.0644    0.2996 H   0  0  0  0  0  0  0  0  0  0  0  0
   -4.1113   -1.3703   -1.4664 H   0  0  0  0  0  0  0  0  0  0  0  0
   -2.4372   -1.4543    2.1841 H   0  0  0  0  0  0  0  0  0  0  0  0
   -1.0617   -0.4035    2.6425 H   0  0  0  0  0  0  0  0  0  0  0  0
   -2.5557    0.2971    1.8992 H   0  0  0  0  0  0  0  0  0  0  0  0
    2.0778    2.4398    0.1723 H   0  0  0  0  0  0  0  0  0  0  0  0
   -1.3843    1.9913    1.2097 H   0  0  0  0  0  0  0  0  0  0  0  0
    3.9091    1.7457   -1.3817 H   0  0  0  0  0  0  0  0  0  0  0  0
    2.2190   -1.0227    1.4680 H   0  0  0  0  0  0  0  0  0  0  0  0
    5.7270    0.1191   -1.8110 H   0  0  0  0  0  0  0  0  0  0  0  0
    4.0531   -2.5959    0.9634 H   0  0  0  0  0  0  0  0  0  0  0  0
  1  7  1  0
  1 12  2  0
  2 12  1  0
  2 13  1  0
  2 32  1  0
  3 12  1  0
  3 16  1  0
  3 33  1  0
  4 17  2  0
  4 18  1  0
  5 16  3  0
  6  7  1  0
  6  8  1  0
  6  9  1  0
  6 10  1  0
  7 11  1  0
  7 19  1  0
  8 20  1  0
  8 21  1  0
  8 22  1  0
  9 23  1  0
  9 24  1  0
  9 25  1  0
 10 26  1  0
 10 27  1  0
 10 28  1  0
 11 29  1  0
 11 30  1  0
 11 31  1  0
 13 14  2  0
 13 15  1  0
 14 17  1  0
 14 34  1  0
 15 18  2  0
 15 35  1  0
 17 36  1  0
 18 37  1  0
M  END
>  <Name>  (39) 
Pinacidil

>  <activity>  (39) 
Negative

$$$$
Primidone
     RDKit          3D

 30 31  0  0  0  0  0  0  0  0999 V2000
   -0.5985    1.5986    1.7614 O   0  0  0  0  0  0  0  0  0  0  0  0
   -1.0475   -1.3494   -1.9779 O   0  0  0  0  0  0  0  0  0  0  0  0
   -1.7290    2.2485   -0.1517 N   0  0  0  0  0  0  0  0  0  0  0  0
   -1.8458    0.8245   -2.0625 N   0  0  0  0  0  0  0  0  0  0  0  0
   -0.6981   -0.1101    0.0553 C   0  0  0  0  0  0  0  0  0  0  0  0
   -1.4856   -1.1577    0.9117 C   0  0  0  0  0  0  0  0  0  0  0  0
    0.8259   -0.3381    0.0211 C   0  0  0  0  0  0  0  0  0  0  0  0
   -1.0061    1.2795    0.6115 C   0  0  0  0  0  0  0  0  0  0  0  0
   -1.1950   -0.2498   -1.3768 C   0  0  0  0  0  0  0  0  0  0  0  0
   -1.7427    2.1998   -1.6040 C   0  0  0  0  0  0  0  0  0  0  0  0
   -1.0863   -1.2395    2.3923 C   0  0  0  0  0  0  0  0  0  0  0  0
    1.6890    0.7206   -0.3475 C   0  0  0  0  0  0  0  0  0  0  0  0
    1.3992   -1.6181    0.2092 C   0  0  0  0  0  0  0  0  0  0  0  0
    3.0690    0.5238   -0.4451 C   0  0  0  0  0  0  0  0  0  0  0  0
    2.7809   -1.8068    0.1107 C   0  0  0  0  0  0  0  0  0  0  0  0
    3.6153   -0.7365   -0.2083 C   0  0  0  0  0  0  0  0  0  0  0  0
   -2.5718   -0.9172    0.8688 H   0  0  0  0  0  0  0  0  0  0  0  0
   -1.3942   -2.1727    0.4692 H   0  0  0  0  0  0  0  0  0  0  0  0
   -2.6073    2.7835   -1.9862 H   0  0  0  0  0  0  0  0  0  0  0  0
   -0.8059    2.6491   -1.9964 H   0  0  0  0  0  0  0  0  0  0  0  0
   -2.0230    3.1365    0.3140 H   0  0  0  0  0  0  0  0  0  0  0  0
   -2.2371    0.6493   -3.0155 H   0  0  0  0  0  0  0  0  0  0  0  0
   -1.5194   -0.3917    2.9617 H   0  0  0  0  0  0  0  0  0  0  0  0
   -1.4932   -2.1752    2.8305 H   0  0  0  0  0  0  0  0  0  0  0  0
    0.0142   -1.2441    2.5246 H   0  0  0  0  0  0  0  0  0  0  0  0
    1.2969    1.7046   -0.5690 H   0  0  0  0  0  0  0  0  0  0  0  0
    0.7934   -2.4836    0.4295 H   0  0  0  0  0  0  0  0  0  0  0  0
    3.7146    1.3495   -0.7153 H   0  0  0  0  0  0  0  0  0  0  0  0
    3.2043   -2.7898    0.2724 H   0  0  0  0  0  0  0  0  0  0  0  0
    4.6841   -0.8874   -0.2876 H   0  0  0  0  0  0  0  0  0  0  0  0
  1  8  2  0
  2  9  2  0
  3  8  1  0
  3 10  1  0
  3 21  1  0
  4  9  1  0
  4 10  1  0
  4 22  1  0
  5  6  1  0
  5  7  1  0
  5  8  1  0
  5  9  1  0
  6 11  1  0
  6 17  1  0
  6 18  1  0
  7 12  2  0
  7 13  1  0
 10 19  1  0
 10 20  1  0
 11 23  1  0
 11 24  1  0
 11 25  1  0
 12 14  1  0
 12 26  1  0
 13 15  2  0
 13 27  1  0
 14 16  2  0
 14 28  1  0
 15 16  1  0
 15 29  1  0
 16 30  1  0
M  END
>  <Name>  (40) 
Primidone

>  <activity>  (40) 
Negative

$$$$
Pseudoephedrine
     RDKit          3D

 27 27  0  0  0  0  0  0  0  0999 V2000
   -0.3425   -0.5562   -2.1500 O   0  0  0  0  0  0  0  0  0  0  0  0
   -2.5763    0.3769   -0.7422 N   0  0  0  0  0  0  0  0  0  0  0  0
   -1.3112    0.1412   -0.0181 C   0  0  0  0  0  0  0  0  0  0  0  0
   -0.1345    0.2596   -1.0224 C   0  0  0  0  0  0  0  0  0  0  0  0
    1.2105   -0.0587   -0.3921 C   0  0  0  0  0  0  0  0  0  0  0  0
   -1.1431    1.1364    1.1484 C   0  0  0  0  0  0  0  0  0  0  0  0
    1.4864   -1.3413    0.1200 C   0  0  0  0  0  0  0  0  0  0  0  0
    2.2029    0.9353   -0.3089 C   0  0  0  0  0  0  0  0  0  0  0  0
   -3.7191   -0.2694   -0.0914 C   0  0  0  0  0  0  0  0  0  0  0  0
    2.7266   -1.6185    0.7030 C   0  0  0  0  0  0  0  0  0  0  0  0
    3.4413    0.6525    0.2752 C   0  0  0  0  0  0  0  0  0  0  0  0
    3.7030   -0.6229    0.7807 C   0  0  0  0  0  0  0  0  0  0  0  0
   -1.3029   -0.8887    0.4057 H   0  0  0  0  0  0  0  0  0  0  0  0
   -0.1233    1.3097   -1.3903 H   0  0  0  0  0  0  0  0  0  0  0  0
   -0.2140    0.9168    1.7154 H   0  0  0  0  0  0  0  0  0  0  0  0
   -1.0917    2.1798    0.7705 H   0  0  0  0  0  0  0  0  0  0  0  0
   -1.9905    1.0556    1.8589 H   0  0  0  0  0  0  0  0  0  0  0  0
   -2.7673    1.4041   -0.8161 H   0  0  0  0  0  0  0  0  0  0  0  0
    0.7445   -2.1276    0.0724 H   0  0  0  0  0  0  0  0  0  0  0  0
    2.0189    1.9313   -0.6920 H   0  0  0  0  0  0  0  0  0  0  0  0
   -0.5257   -1.4788   -1.8332 H   0  0  0  0  0  0  0  0  0  0  0  0
   -3.5613   -1.3676   -0.0311 H   0  0  0  0  0  0  0  0  0  0  0  0
   -3.8898    0.1436    0.9249 H   0  0  0  0  0  0  0  0  0  0  0  0
   -4.6325   -0.0908   -0.6967 H   0  0  0  0  0  0  0  0  0  0  0  0
    2.9305   -2.6064    1.0954 H   0  0  0  0  0  0  0  0  0  0  0  0
    4.1986    1.4235    0.3366 H   0  0  0  0  0  0  0  0  0  0  0  0
    4.6622   -0.8396    1.2328 H   0  0  0  0  0  0  0  0  0  0  0  0
  4  1  1  0
  1 21  1  0
  3  2  1  0
  2  9  1  0
  2 18  1  0
  3  4  1  0
  3  6  1  0
  3 13  1  0
  4  5  1  0
  4 14  1  0
  5  7  2  0
  5  8  1  0
  6 15  1  0
  6 16  1  0
  6 17  1  0
  7 10  1  0
  7 19  1  0
  8 11  2  0
  8 20  1  0
  9 22  1  0
  9 23  1  0
  9 24  1  0
 10 12  2  0
 10 25  1  0
 11 12  1  0
 11 26  1  0
 12 27  1  0
M  END
>  <Name>  (41) 
Pseudoephedrine

>  <activity>  (41) 
Negative

$$$$
Pyridostigmine
     RDKit          3D

 26 26  0  0  0  0  0  0  0  0999 V2000
   -0.6640    0.2966   -0.0131 O   0  0  0  0  0  0  0  0  0  0  0  0
   -1.4991   -1.7526   -0.6889 O   0  0  0  0  0  0  0  0  0  0  0  0
    2.9906    0.6026   -0.1722 N   0  0  0  0  0  0  0  0  0  0  0  0
   -3.0754   -0.1652   -0.0068 N   0  0  0  0  0  0  0  0  0  0  0  0
    0.6904   -0.0562    0.0819 C   0  0  0  0  0  0  0  0  0  0  0  0
    1.6577    0.8925   -0.2680 C   0  0  0  0  0  0  0  0  0  0  0  0
    3.4055   -0.6300    0.2471 C   0  0  0  0  0  0  0  0  0  0  0  0
    1.1139   -1.3090    0.5519 C   0  0  0  0  0  0  0  0  0  0  0  0
    2.4751   -1.5985    0.6260 C   0  0  0  0  0  0  0  0  0  0  0  0
    3.9806    1.5969   -0.5919 C   0  0  0  0  0  0  0  0  0  0  0  0
   -1.7230   -0.5953   -0.2381 C   0  0  0  0  0  0  0  0  0  0  0  0
   -4.1875   -1.0845   -0.2635 C   0  0  0  0  0  0  0  0  0  0  0  0
   -3.3215    1.1900    0.4911 C   0  0  0  0  0  0  0  0  0  0  0  0
    1.3336    1.8636   -0.6247 H   0  0  0  0  0  0  0  0  0  0  0  0
    4.4614   -0.8681    0.2997 H   0  0  0  0  0  0  0  0  0  0  0  0
    0.4023   -2.0524    0.8836 H   0  0  0  0  0  0  0  0  0  0  0  0
    2.8084   -2.5656    0.9799 H   0  0  0  0  0  0  0  0  0  0  0  0
    3.6096    2.6276   -0.4029 H   0  0  0  0  0  0  0  0  0  0  0  0
    4.9290    1.4743   -0.0251 H   0  0  0  0  0  0  0  0  0  0  0  0
    4.1885    1.4794   -1.6763 H   0  0  0  0  0  0  0  0  0  0  0  0
   -4.1857   -1.3845   -1.3327 H   0  0  0  0  0  0  0  0  0  0  0  0
   -5.1680   -0.6166   -0.0354 H   0  0  0  0  0  0  0  0  0  0  0  0
   -4.0783   -1.9899    0.3702 H   0  0  0  0  0  0  0  0  0  0  0  0
   -2.8159    1.3262    1.4704 H   0  0  0  0  0  0  0  0  0  0  0  0
   -2.9228    1.9324   -0.2321 H   0  0  0  0  0  0  0  0  0  0  0  0
   -4.4055    1.3864    0.6290 H   0  0  0  0  0  0  0  0  0  0  0  0
  1  5  1  0
  1 11  1  0
  2 11  2  0
  3  6  2  0
  3  7  1  0
  3 10  1  0
  4 11  1  0
  4 12  1  0
  4 13  1  0
  5  6  1  0
  5  8  2  0
  6 14  1  0
  7  9  2  0
  7 15  1  0
  8  9  1  0
  8 16  1  0
  9 17  1  0
 10 18  1  0
 10 19  1  0
 10 20  1  0
 12 21  1  0
 12 22  1  0
 12 23  1  0
 13 24  1  0
 13 25  1  0
 13 26  1  0
M  CHG  1   3   1
M  END
>  <Name>  (42) 
Pyridostigmine

>  <activity>  (42) 
Negative

$$$$
Pyridoxine
     RDKit          3D

 23 23  0  0  0  0  0  0  0  0999 V2000
    1.5428    1.8870    0.4276 O   0  0  0  0  0  0  0  0  0  0  0  0
   -1.2638    2.0425   -1.3853 O   0  0  0  0  0  0  0  0  0  0  0  0
   -2.7471   -0.6016   -1.5180 O   0  0  0  0  0  0  0  0  0  0  0  0
    1.2593   -1.7787    0.3739 N   0  0  0  0  0  0  0  0  0  0  0  0
   -0.3870    0.4434    0.1394 C   0  0  0  0  0  0  0  0  0  0  0  0
   -0.9253   -0.8634    0.0165 C   0  0  0  0  0  0  0  0  0  0  0  0
    0.9997    0.6000    0.3527 C   0  0  0  0  0  0  0  0  0  0  0  0
    1.8138   -0.5440    0.4812 C   0  0  0  0  0  0  0  0  0  0  0  0
   -1.2486    1.6747   -0.0345 C   0  0  0  0  0  0  0  0  0  0  0  0
   -2.3900   -1.1172   -0.2647 C   0  0  0  0  0  0  0  0  0  0  0  0
   -0.0641   -1.9621    0.1454 C   0  0  0  0  0  0  0  0  0  0  0  0
    3.2894   -0.4393    0.7234 C   0  0  0  0  0  0  0  0  0  0  0  0
   -2.2846    1.4976    0.3225 H   0  0  0  0  0  0  0  0  0  0  0  0
   -0.8536    2.5150    0.5784 H   0  0  0  0  0  0  0  0  0  0  0  0
   -3.0108   -0.6382    0.5200 H   0  0  0  0  0  0  0  0  0  0  0  0
   -2.6313   -2.2040   -0.2254 H   0  0  0  0  0  0  0  0  0  0  0  0
   -0.4427   -2.9725    0.0599 H   0  0  0  0  0  0  0  0  0  0  0  0
    3.7753    0.0880   -0.1242 H   0  0  0  0  0  0  0  0  0  0  0  0
    3.4801    0.1121    1.6681 H   0  0  0  0  0  0  0  0  0  0  0  0
    3.7430   -1.4495    0.8123 H   0  0  0  0  0  0  0  0  0  0  0  0
    2.5281    2.0652    0.5737 H   0  0  0  0  0  0  0  0  0  0  0  0
   -1.8411    2.8475   -1.4462 H   0  0  0  0  0  0  0  0  0  0  0  0
   -2.3417   -1.2025   -2.1967 H   0  0  0  0  0  0  0  0  0  0  0  0
  1  7  1  0
  1 21  1  0
  2  9  1  0
  2 22  1  0
  3 10  1  0
  3 23  1  0
  4  8  2  0
  4 11  1  0
  5  6  1  0
  5  7  2  0
  5  9  1  0
  6 10  1  0
  6 11  2  0
  7  8  1  0
  8 12  1  0
  9 13  1  0
  9 14  1  0
 10 15  1  0
 10 16  1  0
 11 17  1  0
 12 18  1  0
 12 19  1  0
 12 20  1  0
M  END
>  <Name>  (43) 
Pyridoxine

>  <activity>  (43) 
Negative

$$$$
Sulconazole
     RDKit          3D

 39 41  0  0  0  0  0  0  0  0999 V2000
   -0.5094   -2.2705   -2.8153 Cl  0  0  0  0  0  0  0  0  0  0  0  0
   -3.8128   -4.6369    0.7829 Cl  0  0  0  0  0  0  0  0  0  0  0  0
    7.2862    1.3935    0.1990 Cl  0  0  0  0  0  0  0  0  0  0  0  0
    0.4057    0.9464    0.5706 S   0  0  0  0  0  0  0  0  0  0  0  0
   -2.4659    1.7269   -0.7774 N   0  0  0  0  0  0  0  0  0  0  0  0
   -4.5361    1.9104    0.0617 N   0  0  0  0  0  0  0  0  0  0  0  0
   -0.4858    0.2026   -0.8550 C   0  0  0  0  0  0  0  0  0  0  0  0
   -1.3384    1.2578   -1.5844 C   0  0  0  0  0  0  0  0  0  0  0  0
   -1.3106   -1.0155   -0.4571 C   0  0  0  0  0  0  0  0  0  0  0  0
    1.5488   -0.4510    0.8784 C   0  0  0  0  0  0  0  0  0  0  0  0
   -1.3624   -2.1691   -1.2773 C   0  0  0  0  0  0  0  0  0  0  0  0
   -2.0557   -1.0062    0.7404 C   0  0  0  0  0  0  0  0  0  0  0  0
    2.9697    0.0094    0.7166 C   0  0  0  0  0  0  0  0  0  0  0  0
   -2.4555    2.7030    0.1447 C   0  0  0  0  0  0  0  0  0  0  0  0
   -3.7323    1.2681   -0.8113 C   0  0  0  0  0  0  0  0  0  0  0  0
   -2.1293   -3.2738   -0.8867 C   0  0  0  0  0  0  0  0  0  0  0  0
   -2.8177   -2.1132    1.1175 C   0  0  0  0  0  0  0  0  0  0  0  0
   -2.8531   -3.2479    0.3070 C   0  0  0  0  0  0  0  0  0  0  0  0
   -3.7279    2.8108    0.6590 C   0  0  0  0  0  0  0  0  0  0  0  0
    3.4567    0.3561   -0.5549 C   0  0  0  0  0  0  0  0  0  0  0  0
    3.8279    0.0873    1.8264 C   0  0  0  0  0  0  0  0  0  0  0  0
    4.7794    0.7810   -0.7119 C   0  0  0  0  0  0  0  0  0  0  0  0
    5.1504    0.5126    1.6659 C   0  0  0  0  0  0  0  0  0  0  0  0
    5.6270    0.8603    0.3978 C   0  0  0  0  0  0  0  0  0  0  0  0
    0.3066   -0.0950   -1.5715 H   0  0  0  0  0  0  0  0  0  0  0  0
   -1.7197    0.8236   -2.5350 H   0  0  0  0  0  0  0  0  0  0  0  0
   -0.6969    2.1231   -1.8607 H   0  0  0  0  0  0  0  0  0  0  0  0
    1.3670   -1.3096    0.1984 H   0  0  0  0  0  0  0  0  0  0  0  0
    1.3662   -0.8124    1.9127 H   0  0  0  0  0  0  0  0  0  0  0  0
   -2.0563   -0.1369    1.3849 H   0  0  0  0  0  0  0  0  0  0  0  0
   -1.5917    3.2934    0.4214 H   0  0  0  0  0  0  0  0  0  0  0  0
   -4.0695    0.4683   -1.4581 H   0  0  0  0  0  0  0  0  0  0  0  0
   -2.1673   -4.1540   -1.5165 H   0  0  0  0  0  0  0  0  0  0  0  0
   -3.3828   -2.0858    2.0405 H   0  0  0  0  0  0  0  0  0  0  0  0
   -4.0493    3.5053    1.4234 H   0  0  0  0  0  0  0  0  0  0  0  0
    2.8126    0.2964   -1.4232 H   0  0  0  0  0  0  0  0  0  0  0  0
    3.4748   -0.1772    2.8153 H   0  0  0  0  0  0  0  0  0  0  0  0
    5.1442    1.0471   -1.6958 H   0  0  0  0  0  0  0  0  0  0  0  0
    5.8032    0.5715    2.5275 H   0  0  0  0  0  0  0  0  0  0  0  0
  1 11  1  0
  2 18  1  0
  3 24  1  0
  4  7  1  0
  4 10  1  0
  5  8  1  0
  5 14  1  0
  5 15  1  0
  6 15  2  0
  6 19  1  0
  7  8  1  0
  7  9  1  0
  7 25  1  0
  8 26  1  0
  8 27  1  0
  9 11  2  0
  9 12  1  0
 10 13  1  0
 10 28  1  0
 10 29  1  0
 11 16  1  0
 12 17  2  0
 12 30  1  0
 13 20  2  0
 13 21  1  0
 14 19  2  0
 14 31  1  0
 15 32  1  0
 16 18  2  0
 16 33  1  0
 17 18  1  0
 17 34  1  0
 19 35  1  0
 20 22  1  0
 20 36  1  0
 21 23  2  0
 21 37  1  0
 22 24  2  0
 22 38  1  0
 23 24  1  0
 23 39  1  0
M  END
>  <Name>  (44) 
Sulconazole

>  <activity>  (44) 
Negative

$$$$
Sumatriptan
     RDKit          3D

 41 42  0  0  0  0  0  0  0  0999 V2000
   -3.3612    0.9610   -0.5389 S   0  0  0  0  0  0  0  0  0  0  0  0
   -2.1272    1.3005   -1.3274 O   0  0  0  0  0  0  0  0  0  0  0  0
   -4.1110   -0.1309   -1.2510 O   0  0  0  0  0  0  0  0  0  0  0  0
    0.9861   -3.6347    0.5196 N   0  0  0  0  0  0  0  0  0  0  0  0
    3.5624    1.4706   -0.8273 N   0  0  0  0  0  0  0  0  0  0  0  0
   -4.3539    2.3831   -0.4177 N   0  0  0  0  0  0  0  0  0  0  0  0
    1.7622   -1.5240    0.6615 C   0  0  0  0  0  0  0  0  0  0  0  0
    0.3860   -1.4941    0.7723 C   0  0  0  0  0  0  0  0  0  0  0  0
    2.6992   -0.3541    0.6085 C   0  0  0  0  0  0  0  0  0  0  0  0
   -0.0475   -2.7910    0.6864 C   0  0  0  0  0  0  0  0  0  0  0  0
   -1.8823   -0.7196    0.9796 C   0  0  0  0  0  0  0  0  0  0  0  0
    2.7417    0.2400   -0.8044 C   0  0  0  0  0  0  0  0  0  0  0  0
   -0.5020   -0.4287    0.9130 C   0  0  0  0  0  0  0  0  0  0  0  0
    2.0976   -2.8642    0.4951 C   0  0  0  0  0  0  0  0  0  0  0  0
   -2.8811    0.3975    1.0877 C   0  0  0  0  0  0  0  0  0  0  0  0
   -1.4013   -3.1147    0.7385 C   0  0  0  0  0  0  0  0  0  0  0  0
   -2.3248   -2.0640    0.8840 C   0  0  0  0  0  0  0  0  0  0  0  0
    3.1460    2.3401   -1.9397 C   0  0  0  0  0  0  0  0  0  0  0  0
    4.9940    1.1499   -0.9682 C   0  0  0  0  0  0  0  0  0  0  0  0
   -5.6198    2.0560    0.2344 C   0  0  0  0  0  0  0  0  0  0  0  0
    2.3616    0.4208    1.3300 H   0  0  0  0  0  0  0  0  0  0  0  0
    3.7101   -0.6913    0.9180 H   0  0  0  0  0  0  0  0  0  0  0  0
    1.6917    0.4703   -1.0989 H   0  0  0  0  0  0  0  0  0  0  0  0
    3.1246   -0.5172   -1.5269 H   0  0  0  0  0  0  0  0  0  0  0  0
   -0.1412    0.5913    0.9603 H   0  0  0  0  0  0  0  0  0  0  0  0
    3.0977   -3.2510    0.3486 H   0  0  0  0  0  0  0  0  0  0  0  0
   -3.7804    0.0500    1.6385 H   0  0  0  0  0  0  0  0  0  0  0  0
   -2.4476    1.2500    1.6527 H   0  0  0  0  0  0  0  0  0  0  0  0
    0.9424   -4.6722    0.4097 H   0  0  0  0  0  0  0  0  0  0  0  0
   -1.7343   -4.1414    0.6590 H   0  0  0  0  0  0  0  0  0  0  0  0
   -3.3828   -2.2927    0.9146 H   0  0  0  0  0  0  0  0  0  0  0  0
    3.2325    1.8131   -2.9165 H   0  0  0  0  0  0  0  0  0  0  0  0
    2.0939    2.6674   -1.7948 H   0  0  0  0  0  0  0  0  0  0  0  0
    3.7692    3.2602   -1.9663 H   0  0  0  0  0  0  0  0  0  0  0  0
    5.3425    0.5313   -0.1161 H   0  0  0  0  0  0  0  0  0  0  0  0
    5.1968    0.6066   -1.9182 H   0  0  0  0  0  0  0  0  0  0  0  0
    5.5979    2.0828   -0.9531 H   0  0  0  0  0  0  0  0  0  0  0  0
   -4.5705    2.6872   -1.3947 H   0  0  0  0  0  0  0  0  0  0  0  0
   -5.4439    1.7506    1.2866 H   0  0  0  0  0  0  0  0  0  0  0  0
   -6.1549    1.2485   -0.3113 H   0  0  0  0  0  0  0  0  0  0  0  0
   -6.2684    2.9572    0.2476 H   0  0  0  0  0  0  0  0  0  0  0  0
  1  2  2  0
  1  3  2  0
  1  6  1  0
  1 15  1  0
  4 10  1  0
  4 14  1  0
  4 29  1  0
  5 12  1  0
  5 18  1  0
  5 19  1  0
  6 20  1  0
  6 38  1  0
  7  8  1  0
  7  9  1  0
  7 14  2  0
  8 10  2  0
  8 13  1  0
  9 12  1  0
  9 21  1  0
  9 22  1  0
 10 16  1  0
 11 13  2  0
 11 15  1  0
 11 17  1  0
 12 23  1  0
 12 24  1  0
 13 25  1  0
 14 26  1  0
 15 27  1  0
 15 28  1  0
 16 17  2  0
 16 30  1  0
 17 31  1  0
 18 32  1  0
 18 33  1  0
 18 34  1  0
 19 35  1  0
 19 36  1  0
 19 37  1  0
 20 39  1  0
 20 40  1  0
 20 41  1  0
M  END
>  <Name>  (45) 
Sumatriptan

>  <activity>  (45) 
Negative

$$$$
Theophylline
     RDKit          3D

 21 22  0  0  0  0  0  0  0  0999 V2000
   -0.6993   -2.7065    0.1499 O   0  0  0  0  0  0  0  0  0  0  0  0
   -2.0460    1.6708   -0.2008 O   0  0  0  0  0  0  0  0  0  0  0  0
    0.1897    1.2349   -0.0334 N   0  0  0  0  0  0  0  0  0  0  0  0
   -1.4426   -0.5294    0.0319 N   0  0  0  0  0  0  0  0  0  0  0  0
    2.0066   -1.7386    0.1684 N   0  0  0  0  0  0  0  0  0  0  0  0
    2.4915    0.4765    0.0491 N   0  0  0  0  0  0  0  0  0  0  0  0
    1.1584    0.2826    0.0472 C   0  0  0  0  0  0  0  0  0  0  0  0
    0.8701   -1.0334    0.1165 C   0  0  0  0  0  0  0  0  0  0  0  0
   -0.4420   -1.4721    0.1042 C   0  0  0  0  0  0  0  0  0  0  0  0
   -1.1243    0.8163   -0.0686 C   0  0  0  0  0  0  0  0  0  0  0  0
    0.5399    2.6553   -0.1627 C   0  0  0  0  0  0  0  0  0  0  0  0
   -2.8503   -0.9566   -0.0224 C   0  0  0  0  0  0  0  0  0  0  0  0
    2.9754   -0.7918    0.1271 C   0  0  0  0  0  0  0  0  0  0  0  0
    2.1246   -2.7748    0.2217 H   0  0  0  0  0  0  0  0  0  0  0  0
    1.5465    2.8633    0.2590 H   0  0  0  0  0  0  0  0  0  0  0  0
   -0.1831    3.2888    0.3943 H   0  0  0  0  0  0  0  0  0  0  0  0
    0.5301    2.9446   -1.2346 H   0  0  0  0  0  0  0  0  0  0  0  0
   -3.5125   -0.2123    0.4693 H   0  0  0  0  0  0  0  0  0  0  0  0
   -3.0037   -1.9165    0.5154 H   0  0  0  0  0  0  0  0  0  0  0  0
   -3.1612   -1.0792   -1.0812 H   0  0  0  0  0  0  0  0  0  0  0  0
    4.0323   -1.0220    0.1495 H   0  0  0  0  0  0  0  0  0  0  0  0
  1  9  2  0
  2 10  2  0
  3  7  1  0
  3 10  1  0
  3 11  1  0
  4  9  1  0
  4 10  1  0
  4 12  1  0
  5  8  1  0
  5 13  1  0
  5 14  1  0
  6  7  1  0
  6 13  2  0
  7  8  2  0
  8  9  1  0
 11 15  1  0
 11 16  1  0
 11 17  1  0
 12 18  1  0
 12 19  1  0
 12 20  1  0
 13 21  1  0
M  END
>  <Name>  (46) 
Theophylline

>  <activity>  (46) 
Negative

$$$$
Thiamine
     RDKit          3D

 35 36  0  0  0  0  0  0  0  0999 V2000
    2.0263   -2.0176    0.4027 S   0  0  0  0  0  0  0  0  0  0  0  0
    5.4243    1.3130    1.5273 O   0  0  0  0  0  0  0  0  0  0  0  0
    0.4705   -0.5194   -0.8735 N   0  0  0  0  0  0  0  0  0  0  0  0
   -3.4252   -0.0018    1.0935 N   0  0  0  0  0  0  0  0  0  0  0  0
   -4.0703   -1.4817   -0.6137 N   0  0  0  0  0  0  0  0  0  0  0  0
   -1.3795    1.2536    1.0359 N   0  0  0  0  0  0  0  0  0  0  0  0
    1.6837    0.1240   -0.8463 C   0  0  0  0  0  0  0  0  0  0  0  0
   -0.7256   -0.0285   -1.5796 C   0  0  0  0  0  0  0  0  0  0  0  0
    2.6820   -0.5724   -0.1493 C   0  0  0  0  0  0  0  0  0  0  0  0
    4.0870   -0.1286    0.1418 C   0  0  0  0  0  0  0  0  0  0  0  0
   -1.9928   -0.3069   -0.7998 C   0  0  0  0  0  0  0  0  0  0  0  0
    0.5128   -1.7283   -0.2571 C   0  0  0  0  0  0  0  0  0  0  0  0
    1.9082    1.4631   -1.4997 C   0  0  0  0  0  0  0  0  0  0  0  0
    4.1096    0.8972    1.2768 C   0  0  0  0  0  0  0  0  0  0  0  0
   -2.2730    0.3069    0.4410 C   0  0  0  0  0  0  0  0  0  0  0  0
   -2.9364   -1.2113   -1.3080 C   0  0  0  0  0  0  0  0  0  0  0  0
   -4.3135   -0.8944    0.5854 C   0  0  0  0  0  0  0  0  0  0  0  0
   -5.5852   -1.1788    1.3124 C   0  0  0  0  0  0  0  0  0  0  0  0
   -0.7634   -0.5117   -2.5800 H   0  0  0  0  0  0  0  0  0  0  0  0
   -0.6727    1.0651   -1.7580 H   0  0  0  0  0  0  0  0  0  0  0  0
    4.6932   -1.0118    0.4382 H   0  0  0  0  0  0  0  0  0  0  0  0
    4.5531    0.2965   -0.7715 H   0  0  0  0  0  0  0  0  0  0  0  0
   -0.3236   -2.4125   -0.1962 H   0  0  0  0  0  0  0  0  0  0  0  0
    1.5644    1.4276   -2.5544 H   0  0  0  0  0  0  0  0  0  0  0  0
    2.9765    1.7535   -1.5087 H   0  0  0  0  0  0  0  0  0  0  0  0
    1.3419    2.2446   -0.9529 H   0  0  0  0  0  0  0  0  0  0  0  0
    3.6598    0.4620    2.1988 H   0  0  0  0  0  0  0  0  0  0  0  0
    3.5090    1.7866    0.9915 H   0  0  0  0  0  0  0  0  0  0  0  0
   -2.7710   -1.7062   -2.2563 H   0  0  0  0  0  0  0  0  0  0  0  0
   -1.6151    1.6782    1.9602 H   0  0  0  0  0  0  0  0  0  0  0  0
   -0.4937    1.5532    0.5763 H   0  0  0  0  0  0  0  0  0  0  0  0
    5.8626    0.5801    2.0337 H   0  0  0  0  0  0  0  0  0  0  0  0
   -5.9263   -2.2135    1.0970 H   0  0  0  0  0  0  0  0  0  0  0  0
   -5.4314   -1.0760    2.4074 H   0  0  0  0  0  0  0  0  0  0  0  0
   -6.3661   -0.4616    0.9849 H   0  0  0  0  0  0  0  0  0  0  0  0
  1  9  1  0
  1 12  1  0
  2 14  1  0
  2 32  1  0
  3  7  1  0
  3  8  1  0
  3 12  2  0
  4 15  2  0
  4 17  1  0
  5 16  1  0
  5 17  2  0
  6 15  1  0
  6 30  1  0
  6 31  1  0
  7  9  2  0
  7 13  1  0
  8 11  1  0
  8 19  1  0
  8 20  1  0
  9 10  1  0
 10 14  1  0
 10 21  1  0
 10 22  1  0
 11 15  1  0
 11 16  2  0
 12 23  1  0
 13 24  1  0
 13 25  1  0
 13 26  1  0
 14 27  1  0
 14 28  1  0
 16 29  1  0
 17 18  1  0
 18 33  1  0
 18 34  1  0
 18 35  1  0
M  CHG  1   3   1
M  END
>  <Name>  (47) 
Thiamine

>  <activity>  (47) 
Negative

$$$$
